53

O  5.47163745 -2.93945027  2.99233859
S  4.12326163 -2.71718069  2.31800911
O  4.09581316 -2.25875278  0.93318108
N  3.10681031 -1.79768152  3.14486834
S  3.00801214 -1.96923128  4.81444306
O  1.57833113 -2.06558731  5.17668016
O  3.93008185 -3.04992785  5.37160771
C  3.71381573 -0.28843455  5.37573894
F  4.29713322 -0.41845785  6.53419584
F 2.67593669 0.54354894 5.50418226
F 4.57811346 0.18534747 4.4824172 
C  3.47571074 -4.54093651  2.34195723
F  3.7396563  -5.18274663  1.17859125
F  4.04214734 -5.21154737  3.38551726
F  2.17778458 -4.60085482  2.49546102
Li  5.38984684 -3.77936168  4.66912143
C -0.07651948 -1.91628086  1.56306112
O -1.21748565 -1.10760894  1.42830689
C -1.42431473 -0.28007317  0.3071641 
C -2.68129498  0.49190801  0.56211646
O -2.9891814   1.4460338  -0.45255728
C -4.01049875  1.11813604 -1.42214745
C -4.54992364  2.3715021  -2.15190732
O -3.66649408  2.73959078 -3.19234211
C -2.92807273  3.94936805 -2.94530463
C -1.63809786  4.01387966 -3.71257026
O -0.55542302  3.40493432 -3.04636446
C -0.85032621  1.977296   -2.73465394
C  0.46590594  1.29227416 -2.45674131
O  0.46868298 -0.15073844 -2.48756949
C  0.64467846 -0.71824943 -3.7597845 
H -0.01033885 -2.34437315  2.58281433
H -0.04383693 -2.8148775   0.94241848
H  0.9410272  -1.44202133  1.53155101
H -1.5869024  -0.80215075 -0.6398606 
H -0.58630283  0.39004045  0.13419272
H -2.66185131  1.10818657  1.52640688
H -3.52054668 -0.21510663  0.69160491
H -4.82114491  0.61073185 -0.87433414
H -3.65356179  0.41540011 -2.20915365
H -4.63960082  3.18154528 -1.30016544
H -5.60596197  2.05706299 -2.54431055
H -3.58752946  4.86813203 -3.20331771
H -2.62217121  3.9094959  -1.88422642
H -1.4518021   5.07698749 -3.84644489
H -1.79036257  3.51134206 -4.72667152
H -1.5191521   1.91857945 -1.81790502
H -1.31572509  1.47152938 -3.56172118
H  1.30680526  1.63618292 -3.16277121
H  0.81129615  1.57615795 -1.42973938
H  1.70369943 -0.74122922 -4.13792892
H  0.02087553 -0.15365098 -4.51964115
H  0.23736008 -1.75868227 -3.76781285
