53

O 2.1176963  2.16379704 7.69503689
S 2.32316517 0.78390813 7.09821813
O 3.6072857  0.41712998 6.55612651
N 1.1404659  0.39406944 6.06185837
S -0.38439777  0.94203594  6.25570629
O -1.30514214  0.21905335  5.40481883
O -0.80578245  1.08667362  7.68720214
C -0.38028481  2.84713093  5.52651218
F 0.4929806  3.0957378  4.61006855
F -0.06639481  3.66492835  6.60466931
F -1.59884575  3.12251325  4.96797411
C  2.05979954 -0.39451069  8.57058061
F  3.13003192 -0.55698414  9.36166509
F 1.04533398 0.04571973 9.51183259
F  1.59370738 -1.50101963  8.0092393 
Li 0.53993157 2.4244578  8.39975686
C  1.83485448 -0.27033908  2.01911804
O 2.09671898 0.22915242 0.73123897
C 0.98099712 0.94175037 0.18197618
C  1.2982985   1.39390666 -1.20078562
O  1.73725997  0.3601709  -1.97585006
C  0.78435044 -0.16440149 -2.95204218
C  1.64906588 -0.53272301 -4.17729478
O  0.87523257 -1.31348155 -5.12705349
C  0.88929521 -2.67088713 -4.74866821
C -0.462907   -3.21944393 -5.09980248
O -1.42886803 -2.40515369 -4.46855387
C -2.13172662 -1.50816652 -5.35211067
C -3.19261767 -0.74399652 -4.67856694
O -3.56273135  0.16282949 -5.67335677
C -4.6251941   1.00972113 -5.19256636
H  1.1551462  -1.14806063  2.10500947
H  2.85096971 -0.55388877  2.35746927
H 1.38424896 0.61864355 2.54740213
H 0.78922181 1.79163285 0.87878713
H 0.0905932  0.31797586 0.19545696
H  2.02235044  2.29410937 -1.36132283
H  0.37795396  1.92621751 -1.66093734
H  0.0454631   0.61978146 -3.22476284
H  0.19126573 -1.01237565 -2.6220103 
H  2.44554993 -1.17995416 -3.89220682
H  2.16255256  0.36068901 -4.77109563
H  1.6965526  -3.32647633 -5.21504346
H  0.94624522 -2.71180269 -3.64594908
H -0.67299915 -4.27176447 -4.89005989
H -0.49798187 -2.97212875 -6.18093293
H -1.30875983 -0.89007603 -5.78574321
H -2.42371632 -2.12693785 -6.27945019
H -4.0406993  -1.36738388 -4.32107249
H -2.75215654 -0.23831489 -3.76913901
H -4.51739201  1.25998161 -4.12810884
H -5.69399388  0.60028609 -5.26738243
H -4.50199325  1.98626785 -5.67585519
