53

O  3.78475367  4.428591   -1.93557352
S  3.72531872  2.94748825 -1.60516296
O  4.3643893   1.93416166 -2.49111236
N  2.18829205  2.36859041 -1.25180828
S  1.07736306  3.39630086 -0.67454836
O 0.10493929 2.73223146 0.21058093
O  1.56152828  4.73688722 -0.15814746
C  0.11249718  3.87651013 -2.27152187
F -0.45184322  2.94025501 -3.04050646
F  0.98819728  4.54744941 -3.0428899 
F -0.80409707  4.8008893  -1.8779689 
C 4.83115076 2.87966243 0.0262109 
F  6.07583847  2.62452793 -0.2285929 
F 4.7517897  4.07242611 0.60426113
F 4.39379357 1.87894067 0.85329978
Li  2.84701518  5.72710617 -1.0023983 
C -1.27998639 -1.77905126  4.26062624
O -0.845594   -0.46972926  4.37016394
C -0.84773188  0.20818375  3.03702047
C  0.44038742 -0.10203574  2.29787081
O  0.18909839 -0.6508309   0.99361901
C  1.37943697 -0.58396793  0.13684478
C  1.01521668 -1.35803659 -1.08613912
O  0.05499887 -0.57149413 -1.79758301
C -0.56665254 -1.40624334 -2.73778541
C -1.99360454 -1.03758245 -2.97692452
O -2.92317384 -1.75536726 -2.1197692 
C -2.70262231 -1.64614351 -0.67084896
C -3.61788927 -2.69264703 -0.07099392
O -3.41769046 -2.98489239  1.24322605
C -2.28282382 -3.76607124  1.55125608
H -2.38588425 -2.01877372  3.91458216
H -0.65253688 -2.37038252  3.52794753
H -1.24782714 -2.12863565  5.32176135
H -0.96614094  1.25583018  3.32296244
H -1.66748918 -0.20859634  2.46977254
H  1.00161462 -0.86486256  2.94434686
H 1.03990063 0.80185173 2.23577214
H  2.30256463 -1.11309926  0.57063282
H  1.69102681  0.39832724 -0.08044951
H  0.59435649 -2.32744694 -0.78051052
H  1.84936408 -1.50218229 -1.81864109
H -0.08663481 -1.25159148 -3.80243491
H -0.53222309 -2.49770474 -2.49092899
H -2.37515601 -1.28421474 -3.96600104
H -2.15891489  0.04457596 -2.87424157
H -1.54885189 -1.80919857 -0.57939561
H -2.76434097 -0.53198016 -0.31046085
H -4.66346892 -2.4158122  -0.22844115
H -3.44227966 -3.59473721 -0.7135109 
H -2.05974277 -4.45705286  0.61181354
H -2.63060318 -4.33066608  2.44076393
H -1.4490282  -3.08975654  1.73995615
