53

O -5.41186162 -3.43905183  2.88264203
S -4.65038448 -3.32178525  4.16832462
O -3.24073456 -2.98234778  3.95118507
N -4.90396655 -4.53992073  5.30621785
S -6.3480579  -5.10500605  5.74236612
O -6.6535586  -5.35804118  7.14887762
O -7.44252191 -4.40523635  4.98677769
C -6.51923115 -6.81919694  4.90037073
F -7.56640544 -7.56741579  5.28795879
F -5.40024376 -7.44296443  5.21341716
F -6.69048438 -6.61359939  3.53025   
C -5.50101417 -1.81145844  4.9539346 
F -4.81062142 -0.71583898  4.68203833
F -6.78199408 -1.59713126  4.53067562
F -5.58259384 -2.01603682  6.27192151
Li -7.12257469 -4.12419703  3.23868238
C  5.67712369  1.53694981 -5.33416032
O  4.55765178  1.8125339  -4.49795938
C  3.96742981  0.55423561 -3.91838403
C  2.66713803  0.98917523 -3.28541346
O  1.90686309 -0.16275696 -3.01974701
C  0.64966826  0.20537256 -2.49352498
C  0.44210599 -0.11830578 -0.98054383
O  1.08092591  0.69199461 -0.01998616
C 2.36314555 0.29668853 0.2868627 
C 3.10495175 1.48907509 0.76280773
O  3.06075972  2.67499952 -0.04290562
C 2.01697112 3.55020289 0.09265694
C  2.01192     4.52626568 -1.00972607
O  1.54622168  3.93568617 -2.2153197 
C  1.92437721  4.56381739 -3.42074079
H  6.64505423  1.39348298 -4.82152157
H  5.57201141  0.58234384 -5.98079808
H  5.80818742  2.31657661 -6.16799132
H  4.70722551  0.01423603 -3.30440457
H  3.83550676 -0.11166518 -4.77046052
H  2.14376744  1.64428182 -4.0407728 
H  2.82122285  1.50822206 -2.30272191
H -0.2207831  -0.34296589 -2.98290027
H  0.49142548  1.30006508 -2.57007637
H  0.71074501 -1.22703287 -0.78995861
H -0.66059519  0.01898285 -0.94765965
H  2.33714341 -0.49811446  1.097024  
H  2.86781671 -0.17550193 -0.59887823
H 4.19908567 1.36166508 0.85578154
H 2.87424479 1.85902632 1.80453396
H  1.09059663  2.99590613 -0.10548749
H 1.92037112 3.98431168 1.1235005 
H  1.34859336  5.3256535  -0.74438925
H  2.99864499  5.11709523 -1.15930418
H  1.49880576  5.60347679 -3.53445356
H  1.65082742  3.90651902 -4.27211031
H  3.00909731  4.73672927 -3.4865074 
