53

O -2.38308449 -0.3489359  -2.9468176 
S -1.54267907  0.90298464 -2.76839909
O -0.30409648  0.73998806 -2.07360703
N -2.38867336  2.18858179 -2.25123738
S -4.01885552  2.40027701 -2.41610844
O -4.22309306  3.72145686 -2.93770521
O -4.73100061  1.26382678 -3.11834692
C -4.57938337  2.09867568 -0.67156223
F -4.17661502  0.88134786 -0.2980914 
F -5.91111928  2.14783765 -0.65157159
F -4.05116582  3.00106396  0.16236197
C -0.99241005  1.42877938 -4.48887281
F -2.16059252  1.57253132 -5.21224644
F -0.44668199  2.68263757 -4.66249722
F -0.1859995   0.4508308  -4.97340809
Li -3.993448   -0.16488034 -3.93701994
C -2.188768    2.78199184  2.75087069
O -2.97534057  1.59215865  2.67456283
C -2.13263651  0.46786035  2.92417658
C -1.09842953  0.12843805  1.83377108
O 0.04043392 0.97888612 1.8651115 
C 0.78195878 0.98906186 0.65753192
C 2.3092218  1.39601505 0.95042689
O 3.06729375 0.12428234 1.2147171 
C  2.79205911 -0.36740851  2.58160839
C  3.61921812 -1.63809297  2.54481181
O  3.25548304 -2.55186219  1.64333716
C  3.9620803  -2.66868638  0.40284769
C  2.83815125 -2.73452076 -0.73154845
O  2.00568225 -3.89053007 -0.73483987
C  2.16002073 -4.81435294 -1.72555084
H -2.99497494  3.57595997  2.71380337
H -1.71877448  2.80909118  3.75166043
H -1.35872844  2.837709    2.02745012
H -2.77309638 -0.44417866  2.96297474
H -1.61717495  0.61718793  3.92472302
H -1.69375734  0.32425127  0.94900303
H -0.88710437 -0.95753323  1.79106168
H  0.48949037  1.62723278 -0.17565642
H  0.86368366 -0.03976989  0.31787563
H 2.37363653 2.19565524 1.73326378
H  2.6549222   1.78720083 -0.0676807 
H 3.15325406 0.42794398 3.37751727
H  1.65392077 -0.5091589   2.86431151
H  3.3908578  -2.14605138  3.56053466
H  4.69566817 -1.38578121  2.52297359
H  4.76181962 -1.90211566  0.2398555 
H  4.59639017 -3.5921208   0.37328151
H  2.1720967  -1.89037822 -0.50700513
H  3.2812837  -2.67952427 -1.67923775
H  1.4382296  -5.73983395 -1.66559387
H  3.15976276 -5.27164917 -1.87045908
H  2.01106448 -4.40438042 -2.75136195
