53

O  3.68085174 -2.12754544  3.21590706
S  2.59615449 -1.19428457  2.67606874
O  2.54974294 -0.83952754  1.26266527
N 2.12451469 0.06978813 3.53285049
S 2.30680011 0.19748194 5.19769937
O 1.39363781 1.0913736  5.91178349
O  2.37155008 -1.17305486  5.8418387 
C 4.10774661 0.88625004 5.33521799
F 4.65677702 0.24686738 6.46146597
F 4.23934879 2.27879323 5.52058529
F 4.76705425 0.63213904 4.1821792 
C  1.02549194 -2.28760086  2.81773519
F  0.89627848 -3.03232365  1.73525054
F  1.2775063  -3.13278513  3.90504329
F -0.10178764 -1.60594232  2.93575592
Li  3.17892643 -2.49944407  4.85959142
C -2.31830111  0.93297811  1.61333816
O -2.16700137 -0.39371528  1.11047667
C -1.95926183 -0.41065803 -0.33944885
C -1.92670262 -1.88798569 -0.67304473
O -1.60784078 -2.19654757 -2.04024271
C -0.21760447 -2.11829322 -2.39266272
C -0.21212389 -1.73010519 -3.98846277
O -0.58919038 -0.42768658 -4.28754455
C -2.02813162 -0.34068144 -4.35572446
C -2.41393914  1.14789555 -4.19844838
O -2.1924631   1.63940508 -2.91336881
C -1.09163976  2.50343314 -2.96369378
C -0.42124418  2.64561886 -1.64028094
O  0.5042895   1.54719078 -1.34445157
C  1.13490838  1.85686464 -0.13649462
H -2.27075512  0.86662303  2.72500248
H -1.44902238  1.52242016  1.25965882
H -3.22735323  1.43448614  1.1218249 
H -1.06855333  0.19850154 -0.59874908
H -2.8493122   0.01438717 -0.79003598
H -2.9635396  -2.25457749 -0.52502978
H -1.23947657 -2.40924548  0.03151909
H  0.22354263 -3.14272671 -2.27006483
H  0.37215246 -1.31403967 -1.81086519
H -0.79564335 -2.55289011 -4.54096439
H  0.8503098  -1.82308191 -4.37808564
H -2.45315009 -0.62677175 -5.35664018
H -2.50798685 -0.92654204 -3.57091292
H -3.48186078  1.21794059 -4.4295194 
H -1.9001585   1.71445405 -4.94445219
H -0.3040098   2.10473197 -3.62684118
H -1.45229392  3.49872087 -3.28170206
H  0.16817327  3.61609314 -1.58741365
H -1.12964551  2.6229914  -0.78246161
H 0.91610433 2.93516848 0.06272144
H  2.27787723  1.79504893 -0.19194638
H 0.72025387 1.23040964 0.64337382
