53

O  5.5139966  -2.81320256  3.02270961
S  4.14419395 -2.75120179  2.37900813
O  3.93705281 -2.22783622  1.01409917
N  2.99707139 -2.00753677  3.29717726
S  3.05764293 -1.97424738  4.9521617 
O  1.71682644 -2.07734606  5.55604422
O  4.19133997 -2.79327748  5.57031256
C  3.63493692 -0.17793132  5.24207836
F  4.01925533 -0.04366355  6.54219608
F 2.73332918 0.68698104 4.94704506
F  4.68546982 -0.01830565  4.44040882
C  3.52783151 -4.56935006  2.27763095
F  3.96327705 -5.18329673  1.18545403
F  4.04222415 -5.28568355  3.29084653
F  2.21271639 -4.53619162  2.37528183
Li  5.53788278 -3.7608723   4.72717811
C -0.06607785 -1.89259876  1.47656289
O -1.16003837 -0.95412776  1.52914168
C -1.51485313 -0.48570454  0.24580641
C -2.60583615  0.5201524   0.52215658
O -3.04563163  1.43685294 -0.44434818
C -4.08155109  1.00557992 -1.35162525
C -4.52498019  2.31264233 -2.03819552
O -3.71850305  2.68532531 -3.1369218 
C -3.01579925  3.93491839 -2.90116909
C -1.81730541  4.01245082 -3.78856541
O -0.63601766  3.34529509 -3.29978038
C -0.85967537  1.94186436 -3.0854571 
C  0.41736676  1.4253037  -2.42009693
O  0.45666409 -0.00453079 -2.35228416
C  0.74686613 -0.75261648 -3.52694987
H  0.19200309 -2.20944295  2.54586157
H -0.23337147 -2.83240816  0.88752339
H  0.87661089 -1.4248725   1.02950418
H -1.9454051  -1.27188443 -0.42605635
H -0.70225553  0.04348512 -0.28745071
H -2.20279513  1.2433412   1.31336563
H -3.47213845  0.00371905  0.96724404
H -4.92323968  0.60380218 -0.76097671
H -3.79370285  0.20948387 -2.05355869
H -4.55538429  2.98373539 -1.1936004 
H -5.50663557  2.11475489 -2.38351766
H -3.66788887  4.8457619  -3.11236734
H -2.69879404  4.10579956 -1.84943181
H -1.54917929  5.05959208 -3.80582515
H -2.16170809  3.63809963 -4.81810221
H -1.61843554  1.75984392 -2.33075135
H -1.00963299  1.47964593 -4.12158307
H  1.32470403  1.76126858 -2.97393095
H  0.54901276  1.76516445 -1.37977876
H  1.53548311 -0.22699377 -4.08699199
H -0.08988794 -0.93466997 -4.19947962
H  1.16296592 -1.71507091 -3.20800236
