53

O -0.01859745  2.47809636 -4.06923525
S  0.71746179  1.79582236 -2.9185777 
O  0.96607573  0.37013506 -3.09699946
N  0.07947903  2.16311306 -1.49247435
S -1.10542194  3.21230865 -1.16683314
O -1.1473415   3.56172045  0.25303239
O -1.17583489  4.30014907 -2.24738217
C -2.79355013  2.41179422 -1.33510555
F -2.94119152  1.20838789 -0.70995951
F -2.94796428  2.13084322 -2.68531389
F -3.65772294  3.25501346 -0.81454677
C  2.45543063  2.66304212 -2.95250824
F  3.26695622  2.05008587 -3.72850201
F  2.11292514  3.94589632 -3.35011759
F  2.96859474  2.63180178 -1.70669383
Li -1.29854667  3.75952852 -4.02265523
C -1.47881189  1.10774098  5.89093167
O -1.56767553 -0.11002942  5.24592537
C -0.6157668  -0.24302844  4.21400386
C -0.98306688  0.48167701  2.92267264
O 0.14626798 1.30195376 2.50072324
C 0.66094233 0.8584003  1.18385484
C 1.90674659 0.03400512 1.32780944
O  1.50699599 -1.39654694  1.60329235
C  2.19669774 -2.27907649  0.82731539
C  1.72749062 -2.47352486 -0.61888654
O  0.54817342 -3.24377523 -0.63008056
C  0.3355641  -4.16504815 -1.68929216
C -0.41913305 -3.5645893  -2.86969129
O -1.64303588 -3.0552574  -2.37653132
C -1.52200537 -1.72762832 -1.91408768
H -0.52235703  1.39300184  6.38257229
H -1.7126819   2.03207125  5.18736225
H -2.18016798  1.06889536  6.76651251
H -0.25257411 -1.28508365  4.02768087
H 0.37597946 0.20767953 4.56426703
H -1.72518435  1.24895477  3.30521125
H -1.46183531 -0.2165766   2.14963222
H 0.84572556 1.75342959 0.59652673
H -0.13760631  0.33365393  0.63186568
H 2.46224066 0.42310863 2.18645143
H  2.40912126 -0.01254721  0.38485598
H  3.26692882 -2.18699091  0.91600506
H  1.94070622 -3.16831009  1.45921181
H  2.51219189 -3.05642865 -1.05384821
H  1.63945421 -1.49534009 -1.1835255 
H  1.37968479 -4.49175525 -2.0558659 
H -0.25255556 -5.02581992 -1.29927904
H  0.23263777 -2.77323318 -3.38807436
H -0.62518306 -4.22905022 -3.74269548
H -1.55697531 -0.92313727 -2.78424993
H -0.54341362 -1.58140714 -1.39369093
H -2.37427147 -1.47812577 -1.23101271
