53

O -9.42366604 -2.5920544   3.77430207
S -9.0773052  -3.99219876  4.30911181
O -7.99414983 -4.8742451   3.77552263
N -10.46672443  -4.77402242   4.54222826
S -11.8943807   -4.07423081   4.83146877
O -12.88559539  -5.10863844   5.01257913
O -11.8855268   -2.88413248   5.77860214
C -12.35356193  -3.31585145   3.13817491
F -13.69813009  -3.38087437   3.02431451
F -11.73089708  -4.15264761   2.22565478
F -11.98467864  -2.05299076   2.90880135
C -8.49719789 -3.60017524  6.11299936
F -7.15262928 -3.70730147  6.19438994
F -8.85577683 -2.25851631  6.39165043
F -9.1797182  -4.33503892  6.99298165
Li -10.63681218  -1.61002918   5.20705425
C  4.58811318  2.68571269 -5.32807494
O  5.64807172  1.80580466 -5.08280519
C  5.15778303  0.4402071  -5.09173199
C  6.23422415 -0.35757306 -4.41323065
O  6.07143708 -0.37911729 -2.95172942
C  7.23507747 -0.46605823 -2.1221316 
C  7.60203316  0.92386553 -1.58998076
O  6.51975232  1.35126163 -0.80707238
C  5.96963863  2.63569318 -1.02292636
C  4.76032461  2.3858054  -1.95791059
O  3.72432378  1.73042789 -1.19485695
C  2.57080232  2.51850853 -0.94123665
C 1.91584279 1.83004499 0.21770755
O 0.9369613  2.75695714 0.73942037
C 0.40484338 2.34281138 1.98578928
H  4.07122998  2.30892592 -6.26605348
H  3.80595109  2.61506178 -4.54264412
H  4.99858475  3.68165267 -5.39756076
H  4.93446839  0.18487102 -6.18316616
H  4.17650585  0.34935328 -4.54925638
H  7.22084354  0.05458025 -4.62977373
H  6.28982318 -1.45050157 -4.75526366
H  8.07150468 -1.06984232 -2.60955777
H  6.92309677 -1.01128853 -1.21786404
H  7.85618528  1.6269088  -2.38055696
H  8.52215998  0.78760413 -0.95871468
H  5.58526223  3.04210261 -0.06582028
H  6.78812017  3.26397242 -1.41788016
H  5.07738135  1.51720234 -2.57501962
H  4.38210502  3.24978764 -2.48224364
H  2.98162985  3.55079416 -0.62734902
H  1.87445129  2.68658145 -1.80301678
H  1.32150502  0.90151826 -0.1470642 
H 2.67382769 1.6136279  0.99166655
H 0.01112888 1.26473142 1.91693367
H -0.40460146  3.02387203  2.29914608
H 1.21635809 2.31708053 2.74199346
