53

O 3.02068249 0.32570677 4.79979174
S  2.51194705 -0.64408945  3.75794144
O  3.34550081 -1.78187036  3.54033837
N 1.89697369 0.09048617 2.54172357
S 1.09182874 1.49623893 2.65971125
O 0.0634065  1.43384932 1.65987652
O 0.68094309 2.04552807 3.98847774
C 2.47512374 2.76951214 2.08974467
F 1.98515436 3.93295137 1.60071543
F 3.2794626  2.20372787 1.19763681
F 3.38232637 3.02339167 3.16501156
C  0.83049155 -1.3758672   4.43519781
F  1.13396952 -2.0280055   5.58946646
F  0.04643756 -0.33118369  4.96058423
F  0.12805911 -2.03653379  3.54663122
Li 1.96444201 1.66916474 5.11596059
C -1.84875905 -4.89101654 -1.32667735
O -0.84558634 -3.93656609 -1.18207869
C -1.22451743 -2.67572175 -0.75145902
C  0.01724901 -2.04690173 -0.11858788
O  1.01954207 -1.87817745 -1.08600575
C  1.94312735 -0.89499995 -0.69308844
C  2.60431072 -0.30093943 -1.92188368
O  1.83469349  0.86130545 -2.44517561
C  0.95843431  0.50238363 -3.47938381
C -0.1653072   1.55433335 -3.56918359
O -1.32425158  1.21777562 -2.84523715
C -2.41352426  2.21892113 -2.83882976
C -3.19821273  1.94494458 -1.53265506
O -2.42248432  2.42816097 -0.47598227
C -2.93168692  2.14635386  0.81175119
H -2.57483734 -4.65940437 -2.2188805 
H -1.4060638  -5.85854086 -1.51705906
H -2.54591575 -4.95849454 -0.47205835
H -2.04494629 -2.72636526  0.05733422
H -1.6691422  -2.04428686 -1.59154407
H  0.420281   -2.73655931  0.69592324
H -0.38604723 -1.07038704  0.30707645
H  2.76797287e+00 -1.24660150e+00  2.69699048e-03
H  1.40954702 -0.12202254 -0.0918923 
H  2.71157241 -1.06185212 -2.64845305
H  3.56858458  0.15407027 -1.6522847 
H  1.53839722  0.59485547 -4.4708485 
H  0.53933376 -0.4671363  -3.52978696
H -0.3644321   1.66549449 -4.65178067
H  0.18105262  2.61179129 -3.27705671
H -1.98111561  3.26168674 -2.88499902
H -3.04690489  2.03358691 -3.71781715
H -4.14686107  2.498969   -1.53650439
H -3.53611533  0.91042701 -1.51004773
H -2.92580853  1.11157963  1.07593588
H -4.03723413  2.36147865  0.97026545
H -2.31109351  2.70484853  1.46744838
