53

O -9.33589204 -2.62039221  3.76154123
S -9.44816249 -4.01110311  4.3904094 
O -8.42673004 -4.86878978  3.80512198
N -10.98004814  -4.64768015   4.36858903
S -12.24199742  -3.76784177   4.81497274
O -13.34520736  -4.74751491   5.02873053
O -12.06790328  -2.62212692   5.8051823 
C -12.72461076  -3.02096978   3.11901738
F -14.09080332  -3.01048575   3.16070626
F -12.34474938  -3.70961959   2.05315064
F -12.28586038  -1.7006521    2.97870895
C -8.93608826 -3.85732566  6.29979691
F -7.63930657 -3.65836228  6.31737515
F -9.52434074 -2.77327825  6.95580596
F -9.39841741 -4.93877255  6.9115419 
Li -10.67033361  -1.6342689    5.02491058
C  4.09506023  2.27182802 -5.74210849
O  5.15072105  1.81448795 -4.99753802
C  5.6267215   0.50708577 -5.2273682 
C  6.60914421  0.12724394 -4.17383975
O  6.011208    0.03213966 -2.8907028 
C  6.99837021 -0.16254066 -1.82099073
C  7.70301043  1.0852456  -1.11224617
O  6.76867132  1.8733295  -0.45486891
C  6.15896283  2.91458973 -1.16483572
C  4.88635863  2.54819943 -2.02208534
O  3.89177259  1.66362612 -1.49933521
C  3.09431724  2.45029992 -0.60164385
C 2.48843479 1.4825588  0.3362114 
O 1.73646501 2.16161044 1.30430249
C 0.53367902 1.60942431 1.63187961
H  4.44957585  2.51585875 -6.77349255
H  3.17097189  1.61559985 -5.74318191
H  3.77207225  3.24197327 -5.21766364
H  6.08007956  0.41770747 -6.21152839
H  4.79345195 -0.20096669 -5.14168913
H  7.40356633  0.91626374 -4.16924574
H  7.05984419 -0.87505294 -4.47731735
H  7.7727968  -0.88691602 -2.07908448
H  6.28972525 -0.57364673 -1.09859826
H  8.14164209  1.66001067 -1.9852723 
H  8.4811566   0.70689551 -0.38314266
H  5.83827374  3.70627175 -0.44363036
H  7.02677501  3.33484758 -1.77329038
H  5.26322609  2.1258503  -2.95474517
H  4.47845422  3.52333769 -2.33976551
H  3.74981727  3.2458134  -0.13783007
H  2.29306281  2.82069183 -1.24848566
H  1.88378978  0.82726281 -0.2693864 
H 3.28134662 0.85042278 0.78168531
H -0.19542441  1.62837724  0.7863912 
H 0.10736554 2.10598116 2.56107493
H 0.56598468 0.50347176 1.95780726
