53

O -1.9361028   5.61952513 -3.11642069
S -2.16910443  4.09822246 -3.15563917
O -3.53700384  3.64195035 -2.87882399
N -1.11815428  3.29014307 -2.2070124 
S  0.44577421  3.70850026 -2.05622556
O  1.32505934  2.55101252 -1.74637327
O  0.79846474  4.67727972 -3.1645021 
C  0.74614834  4.80995383 -0.50520032
F  2.02857047  5.1848374  -0.34808529
F 0.35228585 4.18522115 0.58698013
F  0.04579602  5.94351579 -0.63896532
C -1.85387329  3.57359582 -4.95093849
F -2.93877168  3.03445633 -5.52667302
F -1.57884496  4.65066652 -5.65355458
F -0.82773435  2.7535579  -5.11236616
Li -0.19492957  6.09257058 -3.13678451
C -0.73362309 -1.37498695 -1.95750205
O -1.22315768 -2.58080385 -1.38026708
C -0.50500341 -2.79209042 -0.14525805
C -0.8388379  -4.24768822  0.34032489
O  0.08191288 -4.56554452  1.33284222
C -0.30487763 -4.20855404  2.68902619
C  1.03065664 -4.14509626  3.42149655
O  1.72676871 -2.92902394  3.12904828
C  2.54518262 -2.9389002   1.99019576
C  3.01914654 -1.48420003  1.75729665
O  1.91931383 -0.73878579  1.22671531
C  1.22999886 -0.05601613  2.23060877
C 0.1246428  0.88363356 1.682893  
O -0.99855243  0.11926727  1.28621869
C -2.06921107  0.86982193  0.72088631
H -0.69581617 -0.49442429 -1.29240006
H  0.39848633 -1.44083349 -2.2341252 
H -1.35102856 -1.13978208 -2.86543892
H -0.68629935 -1.95904934  0.53859901
H  0.63923902 -2.70421066 -0.35537885
H -0.62581642 -4.87837131 -0.50104467
H -1.93405343 -4.34604224  0.70763572
H -1.12754303 -4.84589342  3.14791758
H -0.80573193 -3.22375127  2.84009658
H  1.48664782 -5.09481385  2.97404507
H  1.0444655  -4.1087167   4.50716261
H  3.41431945 -3.59979405  2.25790463
H  2.17494766 -3.47422338  1.12565088
H  3.79261731 -1.32237709  0.93812158
H  3.42469437 -1.06061528  2.72477112
H  0.83768523 -0.81602452  3.00205138
H 1.94301603 0.61183367 2.78838399
H -0.15347067  1.68465581  2.45421577
H 0.50064095 1.54187847 0.81024378
H -2.68333027  0.07070483  0.29042032
H -1.66172793  1.45861906 -0.14460183
H -2.52388133  1.51518988  1.57182878
