53

O -0.61873925  4.75398198  2.32054033
S -1.41926354  3.61796581  1.7456465 
O -2.12637437  2.69741023  2.69395815
N -0.54749088  3.00498859  0.54468443
S  0.71706768  3.71488819 -0.15060682
O  1.22642189  2.84949485 -1.19184157
O  0.37531384  5.15950436 -0.43436817
C 2.11053763 3.93028737 1.23867626
F 3.29004712 3.42396936 0.716206  
F 1.90517439 3.13321402 2.30685006
F 2.24811482 5.21020741 1.69489664
C -2.76047656  4.70175082  0.8554465 
F -3.7218006   4.84894519  1.8026501 
F -2.26226846  5.97740888  0.62873137
F -3.2224741   4.07445703 -0.28425346
Li -0.31775151  6.08930973  1.06310714
C -1.94859998  1.05977882 -1.88471526
O -2.45082153 -0.15335507 -1.47844249
C -1.44446913 -1.19166445 -1.30241581
C -2.18325741 -2.50342663 -1.05332616
O -1.22095174 -3.47118548 -1.06889329
C -0.69839093 -3.93693546  0.1804967 
C  0.46014951 -4.8296575  -0.09152486
O  1.66409835 -4.15197995 -0.44220721
C  1.93185758 -3.74450929 -1.79362415
C  2.88102402 -2.54669101 -1.74440378
O  2.19848056 -1.35598437 -1.25667393
C  2.42669228 -0.96401469  0.13674085
C  1.22449003 -0.18767938  0.69817273
O  0.44075646 -1.1962917   1.38756778
C -0.47632267 -0.60826517  2.21650927
H -0.94825462  0.96554787 -2.37403829
H -2.73156466  1.6000817  -2.5161469 
H -1.83438683  1.72246749 -0.92917169
H -0.78116324 -0.91461696 -0.49731679
H -0.79298105 -1.25991775 -2.23838981
H -2.93498989 -2.67727062 -1.82761475
H -2.74298259 -2.46575084 -0.0951983 
H -1.51834511 -4.56343441  0.54076944
H -0.42657572 -3.117686    0.95127054
H  0.18030251 -5.49636854 -0.90512128
H  0.61908789 -5.37458613  0.90112462
H  2.37643334 -4.6231258  -2.30310104
H  1.03439555 -3.48372933 -2.42802844
H  3.26992196 -2.2949216  -2.73072661
H  3.73868615 -2.86401137 -1.08854728
H  2.62704937 -1.8201247   0.75109649
H  3.27451708 -0.23502706  0.10045179
H 1.59819053 0.64602534 1.42231693
H  0.72539032  0.21061103 -0.18683431
H -1.13565768 -1.38022064  2.69530524
H -1.29768585  0.00885416  1.70127918
H 0.01983907 0.01128169 3.00303737
