53

O -2.17948433  2.0038687  -5.50577182
S -1.02454034  1.04591753 -5.54813064
O -1.50676818 -0.37621427 -5.56927275
N  0.10502578  1.2439825  -4.31965725
S  0.43960954  2.80003503 -3.8978784 
O  1.50908009  2.75918709 -2.86427309
O  0.57434347  3.76225369 -5.07405184
C -1.22569156  3.38423076 -2.97525123
F -0.79127977  4.05002766 -1.89987328
F -2.03482154  2.40678459 -2.64766607
F -1.96159123  4.29415729 -3.67504972
C -0.02816402  1.13327779 -7.18281098
F -0.32621338  0.0934424  -7.89434243
F -0.38959247  2.28064439 -7.84391895
F  1.30423903  1.17783308 -7.00423065
Li -1.12759259  3.89409439 -5.90109867
C  3.0140127  -2.81930994  0.43409877
O  1.63354272 -3.08715321  0.68501905
C  1.02402145 -2.46052836  1.85973874
C -0.31045207 -3.14735691  2.27887676
O -0.84435095 -2.68613806  3.49549461
C -1.88848293 -1.71477604  3.29865912
C -1.86385812 -0.76441318  4.54954899
O -0.89074738  0.18149757  4.51894333
C  0.46601475 -0.12307236  4.73921635
C 1.42205153 0.65231318 3.90201368
O 1.33130677 0.46042312 2.54215722
C 0.35023055 1.32614732 1.96201967
C 0.1076428  0.83394104 0.59075527
O -0.62271637 -0.39490199  0.58145714
C -0.74008441 -0.98262227 -0.72732208
H  3.71109731 -3.61265533  0.89611523
H  3.21248544 -2.91225431 -0.64269314
H  3.2754701  -1.82835913  0.87091953
H  0.86698464 -1.38100663  1.55616765
H  1.64509481 -2.35550941  2.75970732
H -0.27875804 -4.27935807  2.32920466
H -1.03027986 -2.90634523  1.45353018
H -2.89113835 -2.30807508  3.11258648
H -1.69075543 -1.11807409  2.37565347
H -1.76526591 -1.3707193   5.50392192
H -2.94306992 -0.23242041  4.66530098
H 0.64052663 0.19656211 5.80335032
H  0.62468445 -1.22328473  4.71509038
H 2.47456821 0.30540579 4.19406219
H 1.40143821 1.78105147 4.05261432
H -0.51772142  1.35894038  2.61503864
H 0.88828582 2.28489536 1.88406916
H -0.19303453  1.56754675 -0.15556889
H 1.17502836 0.56887716 0.24826153
H -0.73195574 -0.37196243 -1.63048424
H -1.54759708 -1.75292692 -0.62269487
H  0.14922279 -1.63790048 -0.89155167
