53

O -2.08214072  5.57372137 -1.92277296
S -2.2825042   4.09366218 -2.22513944
O -3.50199753  3.42688876 -1.80272807
N -0.97034729  3.20754076 -1.72608231
S  0.53512927  3.76787042 -1.78507   
O  1.48448623  2.64225669 -1.87592305
O  0.69933143  4.80567975 -2.84675664
C  1.04587468  4.67107433 -0.26800444
F 2.35091874 4.67522144 0.01414376
F 0.35822806 4.39714996 0.80638814
F  0.68731268  6.03848913 -0.53955212
C -2.32650674  4.09749029 -4.12260662
F -3.49757923  4.18678185 -4.68532728
F -1.5414752   5.09561679 -4.64047466
F -1.81924516  2.94194011 -4.49837354
Li -0.37323038  6.24045486 -2.28760471
C -0.99614155 -0.88558312 -2.11561456
O -1.32647977 -2.17791402 -1.57253465
C -0.5755788  -2.57358289 -0.48281449
C -1.00451129 -4.02480252 -0.16842132
O -0.14826571 -4.80160445  0.60839174
C -0.40613584 -4.57757031  2.04042358
C  0.89428876 -4.55439674  2.82838872
O  1.70810804 -3.33715805  2.63884644
C  2.50203119 -3.39969528  1.49657913
C  3.02675748 -2.01873497  1.2168925 
O  2.06256049 -1.10097129  0.76675507
C  1.63099122 -0.21520111  1.80731379
C 0.52643523 0.6921638  1.31792118
O -0.71153349  0.2161471   1.75039848
C -1.71112353  1.25573884  1.84017524
H  1.15352599e-03 -5.26338381e-01 -1.79735977e+00
H -1.17891633 -0.91172459 -3.2525038 
H -1.71071514 -0.03351675 -1.69132261
H -0.61618816 -1.99228478  0.43439643
H  0.50270751 -2.55401993 -0.77015943
H -1.02667805 -4.5688345  -1.11457866
H -2.08319139 -4.13897846  0.28769812
H -1.05424282 -5.47420573  2.25006603
H -0.75390431 -3.5456311   2.22374214
H  1.5433058  -5.48504678  2.69240714
H  0.56964983 -4.57786686  3.8288078 
H  3.34919011 -4.06439108  1.5985329 
H  1.84675493 -3.65144279  0.67161165
H  3.95691238 -1.98252542  0.54167421
H  3.40566211 -1.6184517   2.1814769 
H  1.27612073 -0.79913492  2.7473326 
H 2.56062813 0.369061   2.11711935
H 0.55944168 1.77414882 1.67225768
H 0.54613064 0.81758549 0.17421829
H -2.61779764  0.72792288  2.13005008
H -1.90897498  1.79536595  0.88760217
H -1.40470561  2.08163596  2.62011388
