53

O -9.57475364 -2.42637216  4.18048072
S -9.65299215 -3.922937    4.37191753
O -8.61695069 -4.70838453  3.64893858
N -11.12224413  -4.5547296    4.44020883
S -12.52563283  -3.65626612   4.85083801
O -13.56385412  -4.69774176   5.12010367
O -12.3451801   -2.51147374   5.77929794
C -12.87430905  -2.84416196   3.04141549
F -14.21179789  -2.76499614   2.97240542
F -12.36511207  -3.53789413   1.97024399
F -12.28366649  -1.6412333    2.88261463
C -9.12166166 -3.99140507  6.20217346
F -7.78149289 -4.05425743  6.21223382
F -9.47839881 -2.84814245  6.89115633
F -9.62882451 -5.07227996  6.85219096
Li -10.74826557  -1.48156608   5.11648443
C  4.13413507  2.12238137 -5.7448728 
O  5.35847055  1.75094691 -5.14218531
C  5.68206643  0.38108147 -5.38973258
C  6.74934193  0.20063703 -4.21733534
O  6.08066583  0.34605396 -3.00227574
C  6.78903678  0.01341689 -1.87640825
C  7.58912493  1.18460325 -1.31073716
O  6.9340196   2.17341767 -0.50786565
C  6.36927286  3.25198678 -1.19571932
C  5.09920548  2.80037285 -1.96084311
O  4.36149538  1.81685755 -1.13655846
C  3.29626866  2.35680537 -0.43495355
C 2.5014158  1.23316757 0.27808882
O 1.7071994  1.89634873 1.23802141
C 0.68147763 1.12212405 1.72637207
H  4.11333821  2.00818281 -6.83601189
H  3.31796394  1.42499266 -5.3931641 
H  3.87351647  3.12795084 -5.37378707
H  6.12648256  0.32585619 -6.43355647
H  4.77020456 -0.35846656 -5.39883703
H  7.46781383  1.09212636 -4.32863236
H  7.30826439 -0.73288679 -4.29090632
H  7.58686755 -0.78892866 -2.04230399
H  6.03801853 -0.31175913 -1.09311855
H  8.11159247  1.76702689 -2.06633825
H  8.41513913  0.70522865 -0.71316582
H  6.1195869   4.05305883 -0.41064086
H  7.0832073   3.76099248 -1.85640773
H  5.38772854  2.31312621 -2.89309693
H  4.4935707   3.72774198 -2.1302905 
H 3.59959459 3.00417537 0.44375421
H  2.6150944   3.01101478 -1.04213259
H  1.77657172  0.70247505 -0.42601307
H 3.16291634 0.50702554 0.80093473
H 0.12144023 0.65681561 0.90872954
H 0.01176857 1.78800278 2.37314403
H 1.06125939 0.27988806 2.34614213
