53

O  4.3746284  -2.26856137  3.39993749
S  3.14959026 -1.51131944  3.01419131
O  3.19858769 -0.60797385  1.83790086
N  2.20421304 -0.7564628   4.23601901
S  2.42562212 -1.28925901  5.73559095
O  1.51312333 -0.76328522  6.71020462
O  2.65855904 -2.83121791  5.63723262
C  4.14507516 -0.66629918  6.43484085
F 3.9603859  0.14004725 7.43965937
F 4.85161579 0.06122375 5.48257435
F  4.92636747 -1.68779696  6.82021172
C  1.82038292 -2.89173458  2.45928357
F  1.8882088  -2.88305669  1.12929408
F  2.19924727 -4.11058943  2.82697882
F  0.64960986 -2.67978177  3.03254076
Li  3.97463786 -3.57331381  4.57768898
C 0.39098449 1.43362832 1.24288316
O -0.91359943  0.9082845   1.27853637
C -1.43692437  0.60234495  0.00546696
C -2.39707813 -0.59827817  0.13515433
O -3.1623396  -0.82204751 -0.98996307
C -2.38129411 -1.45547307 -1.96405922
C -2.94781443 -1.28443135 -3.36599685
O -2.76759395  0.08227849 -3.83455584
C -3.72134313  0.98257684 -3.37654541
C -3.06358615  2.35955842 -3.43869458
O -1.88862135  2.54619224 -2.69286237
C -0.75293048  2.47894898 -3.52166218
C  0.58496699  2.65053528 -2.77142691
O  0.93697845  1.60311083 -1.88312063
C  1.44291737  0.40970064 -2.4874702 
H 0.90687148 0.99352061 2.15183746
H 0.93191632 1.20611561 0.30567569
H 0.31581165 2.50900745 1.33735138
H -0.67717146  0.54682154 -0.83377916
H -2.0426057   1.48075048 -0.37418628
H -3.02810701 -0.39422055  1.03635857
H -1.89178975 -1.53047926  0.43455188
H -2.2956903  -2.5111406  -1.68668769
H -1.30953024 -1.09241536 -2.05369938
H -3.99563638 -1.58115908 -3.37935706
H -2.47693352 -1.91712307 -4.14564606
H -4.64738892  0.96121868 -4.02803025
H -4.01989054  0.80967149 -2.32828161
H -3.84411105  3.02210702 -3.06018885
H -2.93173237  2.62091187 -4.54891122
H -0.80003039  1.56250491 -4.17158513
H -0.76151514  3.37641195 -4.24914306
H  1.35897258  2.66937095 -3.57472325
H  0.61329697  3.56492722 -2.08166858
H  0.84585957  0.01171582 -3.30546102
H  1.38509199 -0.36236338 -1.73932509
H  2.50173515  0.47629731 -2.8149342 
