53

O  3.98395533 -2.09816897  2.93675951
S  2.7966171  -1.13596126  2.69992535
O  2.8425774  -0.27203199  1.48805481
N  2.44490919 -0.21230061  4.06659723
S  2.54276786 -0.72471517  5.61794027
O  1.64292963 -0.127594    6.64152929
O  2.68797186 -2.25112929  5.69925846
C  4.19988593 -0.07516379  6.15432021
F  4.39322379 -0.41251027  7.37228227
F 4.30305951 1.2280745  5.93189732
F  5.06637261 -0.6383786   5.31256159
C  1.33582239 -2.27011189  2.6626517 
F  1.192778   -2.86529662  1.4554373 
F  1.58951326 -3.27557846  3.58597092
F  0.23703642 -1.62159123  2.90854656
Li  3.95369532 -2.87653388  4.54190337
C -1.11849803  1.48489604  1.89527965
O -1.92387183  0.46932515  1.34841349
C -1.87464167  0.14522396 -0.08071868
C -2.38166311 -1.3301335  -0.15998261
O -2.45103763 -1.8282435  -1.45424048
C -1.24781091 -1.93851412 -2.26804251
C -1.5454246  -1.76355369 -3.73642972
O -1.66120966 -0.36735685 -4.11950063
C -2.98543878  0.18561598 -4.10004881
C -3.00761756  1.75143243 -4.01159036
O -2.06772667  2.29930472 -3.01784604
C -0.73016928  2.44793222 -3.46143983
C  0.22809235  2.93784535 -2.37688279
O  0.50959666  2.00741361 -1.30019782
C  1.44962366  0.96006832 -1.53170105
H -1.61394382  1.8678889   2.79168239
H -0.18627992  0.95582841  2.19173726
H -0.84119833  2.23277309  1.13362608
H -0.86817619  0.30413614 -0.51764297
H -2.56248181  0.85591149 -0.57771678
H -3.35690685 -1.43142999  0.31648035
H -1.78359803 -1.99105276  0.46742474
H -0.87779413 -2.97773638 -2.00986234
H -0.5378377  -1.14249151 -2.0023137 
H -2.41906455 -2.3177194  -4.02452564
H -0.67878883 -2.1298927  -4.33556915
H -3.69094581 -0.11031007 -4.91879692
H -3.44136357 -0.16310595 -3.1446819 
H -4.00700896  2.019479   -3.66938669
H -2.81929561  2.35527736 -5.03554631
H -0.30547489  1.5286986  -3.86457259
H -0.66555767  3.24803651 -4.20998296
H  1.2133142  3.3221775 -2.8972487
H -0.13091213  3.83922571 -1.8710512 
H  1.17653349  0.21943046 -2.32570773
H  1.51337192  0.37966018 -0.5642215 
H  2.47809065  1.30295082 -1.63283172
