53

O 2.23619044 1.97894479 7.32775089
S 2.45888998 0.51249678 6.88221021
O 3.80710601 0.17366405 6.58210175
N 1.40025059 0.11839495 5.68035512
S -0.06047184  0.76807742  5.81906206
O -0.9434509  -0.09952916  4.94426311
O -0.57367755  1.16543523  7.21571569
C 0.05562732 2.51624177 4.94197302
F 1.21979829 2.73447076 4.2795633 
F -0.0967509   3.42429067  5.94242389
F -1.01386387  2.78392595  4.15023384
C  1.75066862 -0.51983056  8.39793939
F  2.78509255 -0.95307214  9.10999441
F 0.90645398 0.2580508  9.28252136
F  0.97881832 -1.53801551  7.96320919
Li 0.73329075 2.63896691 7.763545  
C  1.97893576 -0.36771628  2.26671141
O 1.93819421 0.29428283 1.06713133
C 0.70812953 0.320473   0.41286941
C  0.86941024  0.90951601 -1.02844191
O  1.34162441 -0.13250685 -1.87912315
C  2.14832658  0.3234336  -2.94969654
C  2.13137474 -0.7125342  -4.07898858
O  0.86925705 -1.07316754 -4.7391602 
C  0.17775069 -2.13501022 -3.96594219
C -1.05587225 -2.68914071 -4.69369976
O -2.19921671 -1.87228269 -4.63798883
C -2.33291375 -0.74524072 -5.44429421
C -3.03951907  0.31836369 -4.57420614
O -3.89019848  1.16391378 -5.33874982
C -5.14872175  0.57285655 -5.42939408
H  2.01304609 -1.45947393  2.15946758
H  2.77052487 -0.02855139  2.89053503
H  0.97815216 -0.29344778  2.82917725
H -0.09078796  0.91252255  1.01699574
H  0.35065843 -0.69288605  0.28585809
H  1.53557846  1.82588894 -1.05212403
H -0.17254445  1.29279933 -1.43642913
H  3.30094235  0.28689933 -2.65408802
H  1.93838844  1.38119627 -3.33376776
H  2.57228706 -1.70948006 -3.69371507
H  2.80671187 -0.4908172  -4.8542723 
H  0.80224491 -3.0877354  -3.92592922
H -0.03409631 -1.82352816 -2.9159417 
H -1.24157969 -3.70054051 -4.22482172
H -0.91010551 -3.02150147 -5.76075025
H -1.35702091 -0.42449141 -5.86804666
H -2.97309312 -1.12378752 -6.37404956
H -3.64715431 -0.17240628 -3.75295921
H -2.35157863  1.05649795 -4.08645788
H -5.72607953  0.51458806 -4.47112824
H -5.07846786 -0.47061017 -5.80080062
H -5.62655933  1.09111195 -6.24664126
