53

O -5.55716215  2.86451844  1.10081268
S -4.05328919  2.80131194  0.96645753
O -3.34478554  3.99565167  1.4196172 
N -3.38901367  2.12293632 -0.3237726 
S -4.38625524  1.25262092 -1.40460728
O -3.45502382  0.49880904 -2.28921762
O -5.57929586  0.48927937 -0.87416904
C -5.49703846  2.5591134  -2.28341689
F -5.60799365  2.08983591 -3.53855912
F -4.89543691  3.7876632  -2.19266963
F -6.70150086  2.62325076 -1.65113396
C -3.82363459  1.44801322  2.30005284
F -4.28875295  1.98351083  3.45407618
F -4.59681027  0.37014492  1.93479668
F -2.54953973  0.99197938  2.45641565
Li -6.54535321  1.46522292  0.27006907
C 0.955269   2.68516802 2.05956721
O 0.81566267 2.35732095 0.6784823 
C 0.34725049 1.1091271  0.31365496
C  0.41238804  0.92003313 -1.21162631
O  1.36706188 -0.05013759 -1.55486819
C  1.51001078 -0.17984259 -3.001721  
C  2.93174659 -0.64110527 -3.33700029
O  3.2174354  -1.73750049 -2.47880253
C  4.15962236 -1.50479038 -1.40453905
C  4.29826474 -2.86780938 -0.64257187
O  3.12197362 -3.50102442 -0.32090008
C  2.40296907 -2.71893083  0.6296377 
C  1.82106914 -3.74541086  1.64985347
O  0.85917491 -3.18263768  2.56202892
C  1.51333307 -2.29935069  3.43915502
H 0.00740363 3.11408962 2.46187746
H 1.42068378 1.84489821 2.62060027
H 1.75217533 3.52091437 2.19131072
H -0.6758403   0.90983386  0.6379935 
H 0.99876461 0.32283199 0.81247736
H  0.65042628  1.88073531 -1.65356276
H -0.58160511  0.63968929 -1.53775696
H  1.2518151   0.75438777 -3.55708027
H  0.74353584 -0.87244885 -3.36341757
H  3.64385525  0.24067963 -3.24147311
H  2.86981344 -1.09357679 -4.41010878
H  5.18616027 -1.24277811 -1.77203438
H  3.7521995  -0.63435469 -0.80075304
H  4.91361881 -2.78191204  0.30537885
H  4.9322897  -3.45033578 -1.30604055
H  2.98948346 -1.98452317  1.13477862
H  1.6024089  -2.16902057  0.16268996
H  1.32618735 -4.65342929  1.11097231
H  2.63188488 -4.28245168  2.32343327
H  2.30131775 -2.78956871  4.09182984
H  0.75740099 -1.88615045  4.10673143
H  2.0636749  -1.37448118  2.95705186
