53

O -2.21691587  2.22329588 -5.80021297
S -1.24321877  1.09973646 -5.42291743
O -1.70044333 -0.29902034 -5.27568875
N -0.23845146  1.32685581 -4.13022182
S  0.31513214  2.81170594 -3.72520917
O  1.48450971  2.73775479 -2.83793447
O  0.37937618  3.65643619 -5.02586779
C -1.18087928  3.67352194 -2.86532302
F -0.82662139  4.38180911 -1.81171351
F -2.19595762  2.93041168 -2.52913586
F -1.70494491  4.52773153 -3.84834928
C -0.09649668  1.39286481 -7.03454243
F -0.75742619  0.87436164 -8.09628253
F  0.01678328  2.70936796 -7.34892628
F  1.08846756  0.85482073 -6.96520181
Li -1.28786491  3.87673453 -5.84353983
C  2.82804276 -2.98350845  0.3519884 
O  1.45952039 -3.20405397  0.58106701
C  0.98002222 -2.59600612  1.78780945
C -0.42543484 -3.03381427  2.02921667
O -0.99038524 -2.84909192  3.33322998
C -1.88342247 -1.82156907  3.524665  
C -1.61155525 -1.05960403  4.86145312
O -0.56982293 -0.11759366  4.78867353
C  0.80225567 -0.60113671  4.73364045
C 1.5980907  0.4329607  3.81542521
O 1.32935424 0.40287072 2.41951705
C 0.29817859 1.26679995 1.97659993
C -0.02480342  0.94380789  0.57435204
O -0.55019212 -0.40801796  0.48272265
C -0.48225051 -0.69890439 -0.93907737
H  3.45482465 -3.23902449  1.28086535
H  3.12694005 -3.77111547 -0.34007331
H  3.03890677 -1.93643567  0.06074406
H  1.03237956 -1.49614672  1.61180272
H  1.6612806  -2.85424172  2.67853979
H -0.44756511 -4.1404397   1.76778179
H -1.14498354 -2.55847058  1.35701699
H -2.91157903 -2.2633448   3.43520525
H -1.78911754 -1.00770327  2.72486614
H -1.59468934 -1.84124888  5.62190088
H -2.52110055 -0.42621392  5.20131664
H  1.16364025 -0.67371906  5.80457883
H  0.76218807 -1.64242618  4.33137197
H 2.75102079 0.24334979 3.8936754 
H 1.62729744 1.55459342 4.12427829
H -0.61401128  1.12175669  2.55786743
H 0.71154664 2.37608087 2.04989368
H -0.74286312  1.63417826  0.15193776
H  0.93252288  1.01061072 -0.04249861
H -0.83267864 -0.01256384 -1.77915658
H -0.87954817 -1.73487262 -1.00906917
H  0.62294236 -0.79413017 -1.24306145
