53

O -1.46397621  5.62345     1.39335217
S -1.88321248  4.26470233  0.79673189
O -2.82254104  3.42331764  1.52389612
N -0.71027848  3.35983412  0.12335339
S  0.54515031  4.06926302 -0.54350043
O  1.34367443  2.96802436 -1.26121743
O  0.33274786  5.38012719 -1.22880056
C 1.67896879 4.47149999 0.95025095
F 2.90297206 4.83361953 0.50686677
F 1.67351383 3.53765846 1.90435711
F 1.12509287 5.53483782 1.60169977
C -2.76732633  4.87272617 -0.81730907
F -4.10470425  5.01566526 -0.64818376
F -2.16186009  5.96470026 -1.2553151 
F -2.4620512   3.95605604 -1.79181902
Li -0.40797202  6.63123208  0.0856506 
C -1.38607469  0.16234133 -2.39243984
O -1.88521156 -1.15181329 -2.07714821
C -1.18320926 -1.79568898 -1.0916155 
C -1.85886126 -3.17629459 -0.85669211
O -0.93257305 -4.06803373 -0.27334664
C -0.74241707 -3.87455286  1.12625663
C  0.44476907 -4.6849347   1.55163732
O  1.65076579 -4.07635066  1.04144983
C  1.93685049 -4.30766799 -0.33528245
C  2.93822858 -3.1973908  -0.7528952 
O  2.22935623 -1.97821548 -0.78574405
C  2.36069204 -1.18495818  0.38804528
C 1.37244012 0.01692316 0.57878285
O  0.28134771 -0.41566194  1.37965891
C -0.64924873  0.5565684   1.48726443
H -0.28789939  0.15516745 -2.75301382
H -1.99203094  0.47610021 -3.30189781
H -1.57069174  0.76689161 -1.50730424
H -1.25833622 -1.30107132 -0.11118436
H -0.09338292 -1.98786016 -1.35099552
H -2.02964577 -3.56503971 -1.84522868
H -2.79795734 -3.02454182 -0.25763595
H -1.72256244 -4.07668922  1.81308583
H -0.64788356 -2.77104598  1.33307879
H  0.35449678 -5.68723749  1.12941186
H  0.54499881 -4.81390123  2.6684714 
H  2.33984179 -5.34976088 -0.40889511
H  1.10295442 -4.24874603 -1.04648213
H  3.41019233 -3.33440821 -1.75072665
H  3.67572031 -3.12821577  0.10336388
H  2.19516546 -1.77023721  1.30410542
H  3.4171842  -0.73328283  0.42295549
H 1.94554372 0.84028608 1.08525828
H  0.96187803  0.36145691 -0.38857907
H -1.65853943  0.07465447  1.65287231
H -0.87836739  1.11897982  0.57102241
H -0.40573119  1.26751733  2.31037301
