53

O -1.54094939  4.10920464 -5.84469633
S -1.97010166  2.68649486 -5.47142266
O -3.32193297  2.26823554 -5.80454749
N -1.72541432  2.4560296  -3.9075242 
S -0.42791525  2.98537874 -3.13381627
O  0.22667889  2.10588613 -2.1266169 
O  0.45220111  3.99518527 -3.86434398
C -1.27943725  4.30476626 -1.97681604
F -0.32801509  5.19445127 -1.62571543
F -1.78379027  3.75249043 -0.88412752
F -2.28541605  4.93664636 -2.6475481 
C -0.57454194  1.55033357 -6.22832634
F -1.015683    1.04566486 -7.39001013
F  0.45264806  2.41880779 -6.48972273
F -0.12369094  0.57516179 -5.36420916
Li  0.15487627  4.6556886  -5.54270119
C  1.966826   -2.74533193 -0.91647388
O  0.8028794  -3.17750265 -0.24322305
C  0.81801145 -2.9453394   1.19549603
C -0.35252749 -3.71969185  1.92728552
O -0.5941095  -3.28506087  3.26609113
C -1.58845277 -2.17918228  3.26312887
C -1.32251119 -1.32025183  4.50063196
O -0.1624977  -0.52487315  4.32845896
C  1.08661903 -1.25406282  4.51423105
C  2.21219531 -0.52802714  3.70980216
O  1.91550165 -0.36178034  2.32355074
C 1.2797528  0.90316825 1.96736023
C 0.55943579 0.81913734 0.55102315
O -0.21185092 -0.38496651  0.42176822
C -0.90742307 -0.24254256 -0.77709998
H  2.85162494 -3.00281692 -0.32263386
H  2.0363553  -3.23989567 -1.87056431
H  2.10384844 -1.66571967 -1.14901554
H  0.81851608 -1.86186655  1.29163779
H  1.72375029 -3.37998174  1.64784739
H  0.09412535 -4.74571308  2.09117544
H -1.29836858 -3.91269942  1.44926063
H -2.58624967 -2.68677436  3.38062639
H -1.53978651 -1.50792011  2.40035665
H -1.25276227 -2.07838915  5.35995681
H -2.13364265 -0.64801131  4.77741374
H  1.44628694 -1.26400684  5.58829085
H  0.99083965 -2.30310254  4.19845273
H  3.19047744 -1.10706267  3.87549375
H 2.3468028  0.50887729 4.2048027 
H 0.57490823 1.17688378 2.74069404
H 2.07540328 1.78200781 1.89496645
H -0.01884672  1.7350012   0.33066884
H  1.36424242  0.83533907 -0.31650425
H -1.6463703   0.59274132 -0.84084113
H -1.37881249 -1.26035722 -0.85955584
H -0.17370695 -0.06065117 -1.60241591
