53

O -6.10489605 -3.10168491  3.04309351
S -5.34830678 -3.41386025  4.29119574
O -3.87917188 -3.40883434  4.16754987
N -5.92495945 -4.7076653   5.1592352 
S -7.5346444  -4.94867373  5.46703847
O -7.7247955  -5.09131816  6.92064075
O -8.48351887 -4.0147539   4.80484901
C -7.91838488 -6.46055298  4.49244896
F -9.2598831  -6.75897168  4.63134154
F -7.11731057 -7.4588883   4.89693549
F -7.76286978 -6.26654413  3.19020172
C -5.91284539 -1.95102734  5.58137269
F -5.27485039 -0.84749421  5.32579739
F -7.24077033 -1.64193584  5.50061924
F -5.67351719 -2.38226782  6.79488304
Li -7.94019901 -3.14328816  3.28154311
C  5.26882906  2.85679302 -5.93021985
O  4.36406011  1.74787157 -5.61508106
C  4.41624388  1.36918821 -4.21775988
C  3.10695422  0.5691293  -3.92267268
O  3.14572037  0.17519253 -2.58607651
C  2.17019244 -0.78620456 -2.2562629 
C  2.33395754 -1.37188439 -0.89380534
O  2.28488375 -0.56516518  0.29566517
C 3.22589378 0.503813   0.33818607
C 2.77679944 1.43113091 1.42961839
O 2.801954   2.83779791 1.13603033
C 1.85468849 3.23292097 0.25295409
C  2.38952471  3.73860961 -1.09845452
O  1.42787819  4.59210388 -1.66786945
C  1.74719486  5.00218391 -3.00741532
H  5.45513614  3.39355063 -5.01603477
H  6.20386553  2.45857057 -6.3341063 
H  4.78077783  3.49774806 -6.67533363
H  4.49828151  2.3302749  -3.67095438
H  5.28577039  0.74225184 -4.06785775
H  3.0195031 -0.2680051 -4.679915 
H  2.27214781  1.26534031 -4.24602917
H  2.05098755 -1.53425742 -3.10043907
H  1.19311829 -0.27854721 -2.2370503 
H  3.26463135 -1.96654895 -0.86447516
H  1.5346269  -2.14895249 -0.85071503
H 4.24892219 0.07814717 0.48212184
H  3.12267981  1.07256249 -0.64219317
H 3.27908473 1.37647458 2.39815884
H 1.71634871 1.14358656 1.66226152
H 1.11491936 2.39383298 0.01829419
H 1.28390536 4.06829739 0.75928848
H  3.3862289   4.35846814 -0.95393181
H  2.69733694  2.87739551 -1.73396036
H  2.59629667  5.75619322 -2.9804501 
H  0.80335125  5.45763964 -3.37298415
H  1.97822836  4.19025755 -3.69927697
