53

O  3.96581562 -2.01104284  2.93487176
S  2.81248463 -1.09238714  2.66120345
O  2.65529683 -0.50938972  1.34580729
N 2.61535676 0.06427929 3.87771483
S  2.52438412 -0.58018475  5.38018558
O  1.37085913 -0.02679457  6.20560452
O  2.64271046 -2.11350831  5.54869052
C 4.22665298 0.1884947  5.97404756
F  4.44146096 -0.46037197  7.13270984
F 4.19251383 1.48349825 6.22697027
F  5.24849867 -0.15142114  5.17154587
C  1.15827332 -2.1518808   2.67273755
F  1.00548599 -2.58386313  1.38212146
F  1.17088394 -3.31368981  3.42558986
F  0.141297   -1.46691562  3.13142015
Li  3.72655477 -2.98697861  4.46487303
C -1.16715468  1.31535092  1.76107347
O -2.06337128  0.29542399  1.44263143
C -2.19289822  0.09432266  0.02462435
C -2.45858998 -1.39004671 -0.26912874
O -2.34881887 -1.83556183 -1.60819218
C -1.0410855  -1.85407039 -2.2525186 
C -1.33263639 -1.8843976  -3.77204988
O -1.55949466 -0.57052893 -4.33575824
C -2.84887329  0.04459497 -4.12931226
C -2.71643233  1.49952151 -4.2530241 
O -2.04415697  2.19418957 -3.20168264
C -0.63928618  2.36587047 -3.2648582 
C -0.18281806  2.71774064 -1.79617035
O  0.37682674  1.64195405 -1.01464669
C  1.72477202  1.26304994 -1.27145334
H -1.11251711  1.42470809  2.86546256
H -0.06016953  1.18441024  1.35255642
H -1.54096109  2.31775524  1.34085586
H -1.24796099  0.44167369 -0.44294799
H -3.01964831  0.75852769 -0.39896851
H -3.40029456 -1.79841565  0.12775148
H -1.7268833  -2.01488547  0.3526178 
H -0.54107463 -2.76181737 -1.90420381
H -0.50073998 -0.90831291 -1.97120136
H -2.16367936 -2.59380671 -4.04682478
H -0.39888863 -2.23199747 -4.34562912
H -3.56159343 -0.28983514 -4.95492839
H -3.35099151 -0.23732184 -3.19861923
H -3.69104016  1.93777798 -4.32540381
H -2.27841743  1.68704858 -5.26557292
H -0.055091    1.55128704 -3.70662815
H -0.35321167  3.30555331 -3.89657873
H  0.58186382  3.52504395 -1.79935465
H -1.06164067  3.11638415 -1.30124199
H  1.73642848  1.05203112 -2.3794382 
H  1.92810871  0.26805854 -0.73941714
H  2.41389097  2.08087583 -0.95791289
