53

O -2.82005087  0.34458833 -4.28437635
S -2.32975873 -0.89063855 -3.52466503
O -2.5418903  -0.94853538 -2.05889156
N -0.82183108 -1.36387928 -3.98498674
S -0.35934279 -1.21808239 -5.53543768
O  0.64168552 -2.25251455 -5.88480627
O -1.58219458 -1.11472652 -6.45951129
C  0.56133592  0.42459763 -5.5363271 
F  1.28356826  0.61744258 -6.63372667
F  1.35519172  0.36141581 -4.48910595
F -0.35158207  1.43832681 -5.30773734
C -3.52436339 -2.25071284 -4.26592237
F -4.769372   -2.07326957 -3.63772749
F -3.70376769 -1.95920916 -5.61703618
F -3.10683141 -3.47763351 -4.1582323 
Li -2.73366365  0.12770609 -6.14451818
C  0.550754   -2.34625521 -0.86480081
O  1.42428979 -2.56483678  0.20491253
C  1.40484419 -1.5531591   1.14746454
C  1.76772909 -2.26705716  2.46755455
O  1.47847289 -1.43525686  3.55354252
C  0.10693804 -1.36008835  3.9323231 
C  0.00661453 -0.40268647  5.12950312
O 0.11359147 0.94998302 4.78247977
C 1.43946076 1.51816607 4.69292132
C 1.26935813 2.92718528 4.24951539
O 1.20967673 3.13255337 2.91214389
C 0.40984713 2.23837879 2.05594117
C 0.01423906 3.23377797 0.92478238
O -0.75327332  2.67035943 -0.0592538 
C  0.02733957  2.14463135 -1.11198335
H  0.33297279 -3.28036779 -1.44450601
H -0.46132188 -1.94027057 -0.61487334
H  0.9994193  -1.6491051  -1.62774404
H  0.42882244 -1.08356944  1.20880549
H  2.07593613 -0.66049368  0.9529958 
H  2.80978793 -2.66140954  2.57374816
H  1.1247878  -3.12616814  2.44579575
H -0.32662059 -2.27010644  4.40801598
H -0.49884692 -1.10930527  3.07107118
H  0.79976512 -0.75995199  5.79527591
H -0.96209632 -0.45984271  5.64133525
H 1.9190123  1.44733779 5.69981776
H 2.1140196  0.94524329 3.96106149
H 2.20026169 3.49022951 4.55660845
H 0.39107656 3.33791612 4.80727598
H 1.02743845 1.36445053 1.79107009
H -0.55804613  1.82652907  2.48160763
H -0.60406124  3.97063443  1.4642534 
H 0.88579339 3.85418035 0.55284085
H  0.48002961  1.17114947 -0.81594847
H  0.878042    2.85364424 -1.43389705
H -0.72318696  2.08870502 -1.96864809
