53

O -3.04384307  0.13352741 -3.70266427
S -1.83029639  0.04709669 -2.78611873
O -1.47428561 -1.21599734 -2.08193169
N -1.62535798  1.30635672 -1.83949653
S -2.66119817  2.5692006  -1.95757786
O -2.09939133  3.63759076 -1.19682241
O -3.15654847  2.95162915 -3.33744933
C -4.26869831  1.96706426 -1.13795047
F -4.17902833  0.63436533 -1.02001367
F -5.34820521  2.27724603 -1.83951082
F -4.28961407  2.53983459  0.06659281
C -0.38188002  0.61836474 -3.98081943
F -0.91802416  1.68676396 -4.67515394
F  0.62753816  1.00211067 -3.19371619
F  0.04775399 -0.31708735 -4.84818063
Li -2.89362922  1.70434286 -4.60450969
C -1.59292147  1.91239061  4.54062258
O -2.40402403  1.97085155  3.29510641
C -2.44929382  0.72547459  2.44065812
C -1.27381007  0.78136795  1.49684482
O -0.07653078  0.60165241  2.20046298
C 0.87210286 1.44429328 1.6881097 
C 2.30943205 1.06774071 2.23738026
O  2.88986328 -0.14826276  1.81684683
C  2.37325267 -1.36085985  2.47348554
C  3.08570446 -2.56274665  1.87642227
O  2.83206778 -2.74231878  0.48490964
C  3.49380882 -2.0311333  -0.49681791
C  2.64572642 -2.07372179 -1.84733711
O  2.48454796 -3.41477184 -2.16887341
C  1.35255098 -3.76740363 -2.79446827
H -1.71768914  2.90641945  4.97721052
H -1.95472812  1.19040199  5.25087332
H -0.50681202  1.82747332  4.33412217
H -3.44301634  0.73800683  1.92273952
H -2.25719172 -0.14301074  3.05527426
H -1.26209645  1.77455381  0.98436264
H -1.27555431  0.11987208  0.65781516
H 0.60139316 2.42526724 2.07641916
H 0.83116626 1.46080783 0.58027825
H 2.2893266  1.02366213 3.35421393
H 2.98606092 1.92884816 1.83583725
H  2.56324488 -1.32175206  3.50418395
H  1.23346601 -1.42627029  2.26817537
H  2.62797846 -3.45687588  2.41851583
H  4.16718875 -2.66602832  2.05486994
H  3.59724553 -0.89480459 -0.27901149
H  4.58395586 -2.45208843 -0.63622793
H  1.59456297 -1.6830928  -1.83415144
H  3.11530926 -1.55008388 -2.73937433
H  1.66638652 -4.62991891 -3.41513539
H  0.88073751 -2.97275679 -3.42239121
H  0.6312965  -4.14359174 -2.05662907
