53

O -1.64007898  1.49293188 -3.15239153
S -2.49972176  2.22393948 -4.1833438 
O -2.26669022  3.68856102 -4.47936986
N -4.12176128  1.94475546 -4.06831308
S -4.66134298  1.09033826 -2.70370981
O -6.06162262  0.75359292 -2.99090392
O -3.70354799  0.1910552  -1.98304368
C -4.64535725  2.62624951 -1.41005635
F -3.32839872  2.76326823 -0.96988328
F -5.33700314  2.33363394 -0.33367166
F -4.99146604  3.79465396 -1.88267048
C -2.12159664  1.3537377  -5.84754436
F -2.50333698  0.11014171 -5.98143732
F -2.59411846  2.09003315 -6.88016948
F -0.77784149  1.40311367 -5.86700193
Li -1.97042809  1.08732579 -1.47836754
C -1.10513276  0.83389311  3.77429067
O -2.01779766  0.80375102  2.73668812
C -2.39348454 -0.40129833  2.29252991
C -1.69250913 -0.83688535  0.93185835
O -0.25175136 -0.72001442  1.04512773
C 0.32996521 0.21232995 0.10722901
C 1.48629101 1.00694818 0.56354763
O 2.52558478 0.10626355 0.61085649
C 3.7988527  0.73211802 0.61562898
C  4.90561266 -0.25715761  0.62723032
O  5.1503554  -0.77486794  2.01876773
C  4.8262225  -2.12598263  2.16716205
C  3.34677559 -2.46133531  1.87892339
O  3.09262148 -3.83989537  1.60805395
C  1.76529184 -4.0047447   1.27122374
H -0.85337207  1.91528481  3.83320969
H -1.46772096  0.67085266  4.83165735
H -0.32892001  0.08091311  3.612567  
H -3.41684538 -0.4953329   1.96374928
H -2.31604106 -1.2325937   3.05809966
H -1.96360963 -0.16425983  0.14618793
H -2.08106759 -1.76652673  0.5461419 
H -0.39908715  0.91635284 -0.39966053
H  0.71990687 -0.46846767 -0.62793308
H 1.32899148 1.5640698  1.519649  
H  1.61020203  1.8017025  -0.17326268
H  3.8730598   1.43223603 -0.27632707
H 3.94291943 1.380415   1.53342952
H 5.91687887 0.05339331 0.04671385
H  4.45434835 -1.17370455  0.04885733
H  5.44941744 -2.93413506  1.59885919
H  5.10179956 -2.44920523  3.23725867
H  2.62243206 -2.08998454  2.74400455
H  3.05141683 -1.84579195  1.0305602 
H  1.67152579 -5.05877085  1.10084394
H  1.43843959 -3.47261927  0.41848462
H  1.10274066 -3.88428183  2.16966967
