53

O  4.52207246 -2.55580666  1.69696369
S  3.07403889 -2.17610426  1.87394917
O  2.39548247 -1.26835924  0.9511953 
N  2.63694243 -1.7664353   3.36700119
S  3.17343102 -2.6348303   4.66228094
O  2.20731273 -2.53037964  5.76289105
O  3.92506193 -3.87546767  4.25550958
C  4.63668396 -1.64880031  5.44062726
F  5.31857917 -2.47490136  6.28331594
F  4.17046237 -0.64076806  6.09279215
F  5.54574422 -1.2653795   4.46033845
C  2.38543141 -3.87507022  1.70103047
F  2.08301545 -3.95495071  0.40346196
F  3.3135559  -4.81292037  2.03483545
F  1.29682498 -4.17770122  2.43675401
Li  5.13100518 -3.75947234  2.84360145
C -1.55375759 -1.23365057  1.55885437
O -2.77434579 -0.72373023  1.09268882
C -2.57849153  0.21711618  0.08728066
C -3.93668177  0.65873077 -0.50123049
O -3.83026277  1.75308871 -1.39616361
C -3.75461052  1.39579749 -2.74654156
C -3.50518615  2.65174217 -3.66440335
O -2.2437936   3.30079817 -3.51003488
C -1.87680381  4.14515117 -2.41835537
C -0.37574694  4.09259604 -2.21790262
O -0.06057962  2.95739085 -1.37094029
C  0.28890208  1.71980694 -1.96589301
C  0.55354961  0.67782665 -0.86021556
O  0.18858506 -0.57419355 -1.21979977
C  0.87464576 -1.19335134 -2.33517003
H -1.90729001 -2.0780795   2.20358606
H -0.90110375 -1.67580094  0.71857041
H -0.93892966 -0.43963306  2.18463326
H -1.97059137 -0.21543596 -0.69692368
H -2.00408624  1.15514778  0.38105356
H -4.60776877  0.92415764  0.34605121
H -4.4110735  -0.19316528 -1.02223309
H -4.69333232  0.88606442 -3.13391636
H -2.92197413  0.68259174 -2.95745306
H -4.37208084  3.32775446 -3.58738164
H -3.44279186  2.38456824 -4.73991398
H -2.1893377   5.24470181 -2.59505769
H -2.31747638  3.80696214 -1.43317573
H -0.02929782  5.00412524 -1.64578733
H  0.14959842  4.01843091 -3.24898553
H -0.65895851  1.46279833 -2.44982125
H  1.06652906  1.72642711 -2.71281817
H  1.67414078  0.69055364 -0.69991442
H 0.03606082 0.96269908 0.07979252
H  0.78815135 -2.26136991 -2.20524546
H  1.93736413 -0.95771269 -2.23862779
H  0.48318129 -0.88355749 -3.34515318
