53

O 1.68349369 2.54037986 7.0751765 
S 1.95150154 1.43254871 6.01001975
O 3.21891983 1.55872968 5.25644927
N 0.68683271 0.95765179 5.03617609
S -0.85724845  1.14472511  5.5690361 
O -1.81552762  0.33084906  4.77132678
O -1.03684817  1.13544995  7.0212923 
C -1.17688652  3.01089156  5.16048359
F -0.44046755  3.2577731   4.11878349
F -0.85400865  3.83020254  6.20884948
F -2.45237434  3.30508522  4.99584299
C  2.31231225 -0.07290908  7.10340345
F  3.5193332  -0.11782629  7.58353524
F  1.46860593 -0.02576557  8.1696499 
F  2.09243421 -1.27608497  6.56046126
Li 0.04997561 2.32038062 8.02672716
C 1.74799081 1.55379808 1.48815394
O 0.81012218 1.19987484 0.49812384
C -0.20882393  0.2393268   0.87815811
C -0.82673365 -0.32821252 -0.40268259
O  0.19884602 -0.75913184 -1.32420079
C  0.7794328   0.30013058 -2.1813055 
C  1.78874079 -0.40200497 -2.98937117
O  1.14019584 -1.14260379 -4.02059475
C  1.40511806 -2.4979516  -4.10090301
C  0.51421753 -3.31900409 -5.11395319
O -0.86011537 -3.2157963  -4.91297245
C -1.5505488  -2.02795718 -5.40758551
C -2.03612586 -1.10312605 -4.16486091
O -2.29288488  0.24874726 -4.39536043
C -3.441313    0.53932739 -5.18201214
H 2.31772583 0.6505254  1.95594634
H 2.49912828 2.24251154 0.97914454
H 1.21814849 2.1114287  2.2435944 
H -1.06561043  0.73156241  1.36762265
H  0.26723236 -0.56039539  1.53547439
H -1.56021505  0.37627086 -1.03148573
H -1.43798285 -1.17846499 -0.14685637
H  1.30337603  1.10199477 -1.6441352 
H -0.04923238  0.81481525 -2.77479939
H  2.38286163 -1.00792891 -2.31129439
H  2.38371617  0.3700413  -3.44872855
H  2.42750587 -2.78232319 -4.40206433
H  1.22337831 -3.03102855 -3.07386706
H  0.92340145 -4.34724222 -4.93394606
H  0.77221358 -3.2107843  -6.23322496
H -0.86073477 -1.43495997 -6.00537975
H -2.47086047 -2.30878181 -5.93074662
H -2.9863453  -1.6277631  -3.94951133
H -1.31528171 -1.32652578 -3.33465763
H -4.4248231   0.08238988 -4.69790507
H -3.49611169  0.0765849  -6.19628005
H -3.56965647  1.64057531 -5.30274664
