53

O -3.14398516 -4.60215872  2.77357899
S -2.76399115 -3.52921755  3.81119451
O -1.69730647 -2.60391676  3.47553031
N -2.65183856 -4.11588823  5.31415733
S -3.63469177 -5.31902422  5.86292385
O -4.35616464 -5.11474265  7.14968835
O -4.62651455 -5.82249555  4.80660878
C -2.27561438 -6.69402205  6.14211639
F -2.81967955 -7.76500489  6.68416217
F -1.32324348 -6.24457503  6.92548908
F -1.80845    -7.02972307  4.88999203
C -4.34250245 -2.44949453  4.06650624
F -4.86058986 -2.32306514  2.84076084
F -5.33684787 -2.97663602  4.86365531
F -4.12300784 -1.25232931  4.56015803
Li -3.83096403 -6.17823975  3.2501452 
C  3.95139682 -0.14202312 -2.56939196
O  3.04048307 -0.32375313 -3.72497658
C  1.69208714 -0.42778227 -3.40163846
C  0.99726804  0.99315673 -3.43476193
O -0.32823203  0.84220887 -2.9464435 
C -1.11285227  2.0141593  -3.09534654
C -1.7644172   2.45967576 -1.78231657
O -0.94357191  2.95452926 -0.79746075
C -0.28906239  1.81932704 -0.12062166
C 0.93712561 2.27641552 0.64111523
O  2.09682236  2.42899702 -0.13995815
C  2.18923913  3.67910465 -0.8057351 
C  3.47249858  3.92417029 -1.64417247
O  3.63342123  2.9369513  -2.68751871
C  3.40497112  3.23816716 -4.04924053
H  3.50007779  0.44451476 -1.70898151
H  4.2795274  -1.19645166 -2.3010012 
H  4.84849786  0.43762935 -2.86025732
H  1.56805061 -0.94956514 -2.40678612
H  1.09567011 -1.04933029 -4.15813763
H  1.09184198  1.36772257 -4.48692882
H  1.60444297  1.72030088 -2.77969831
H -1.88930803  1.99178527 -3.84176534
H -0.45722955  2.89602909 -3.37546068
H -2.4650346   1.65180318 -1.40208264
H -2.41682246  3.28071352 -2.09070611
H -1.04962853  1.42951434  0.59953076
H -0.09458017  1.09508535 -0.88765339
H 1.10265937 1.46400269 1.39773466
H 0.63003341 3.28452635 1.12516096
H  1.30828103  3.82268063 -1.42339293
H  2.22722174  4.53606188 -0.04365887
H  3.31501665  4.95983828 -2.01971623
H  4.40896318  4.10328784 -0.98126504
H  2.53573719  4.02501576 -4.16240548
H  3.12493448  2.30490618 -4.57664099
H  4.34986203  3.72715826 -4.4740875 
