53

O  3.38073434  3.88546624 -3.14121071
S  3.61933933  2.99831009 -1.91396577
O  4.27504463  1.71916176 -2.15792598
N  2.21264644  2.84374135 -1.08527769
S  0.98782476  3.90379797 -1.13187864
O 0.33628089 3.82637089 0.18237576
O  1.20782666  5.30648232 -1.66558848
C -0.22474217  3.15230387 -2.37103336
F -0.21309317  1.81546253 -2.22303968
F  0.10272502  3.51480642 -3.64718986
F -1.46423697  3.62552645 -2.1615002 
C  4.86572302  3.96411225 -0.71618675
F  5.87620278  4.3672979  -1.43815137
F  4.14925297  5.04609683 -0.28966464
F 5.26555949 3.13967758 0.28410669
Li  2.10820049  5.19285127 -3.27059925
C  0.42504692 -0.26405351  5.17391076
O -0.28012798 -1.49304912  5.10348436
C  0.28054732 -2.23304724  4.04087468
C  0.17160898 -1.7131227   2.58190927
O  1.01491862 -0.69684658  2.19913274
C 0.61494437 0.00298424 1.00698744
C  1.35321872 -0.37136908 -0.25721798
O  0.31889757 -0.74443154 -1.22965852
C  0.67954432 -1.74812641 -2.113376  
C -0.64503352 -2.25311556 -2.76161309
O -1.56270942 -2.89131485 -1.93024065
C -2.40355906 -2.12648405 -1.10588259
C -3.61729519 -3.00785003 -0.6789622 
O -4.26978965 -2.23816335  0.42159992
C -5.68720003 -2.23496991  0.36470591
H  1.52860288 -0.45894295  5.38070773
H 0.36533463 0.37273208 4.20053757
H 0.03418869 0.35409644 6.02602594
H -0.17131583 -3.19651458  3.91245152
H  1.33152527 -2.46552196  4.24259459
H -0.89233102 -1.22070233  2.52616037
H  0.18933511 -2.61726064  1.95290228
H 0.63230001 1.12174876 1.24875398
H -0.43615078 -0.16786031  0.74525331
H  1.87315724 -1.2783489   0.08183476
H  2.07437951  0.41920199 -0.61233128
H  1.34166998 -1.37529766 -2.97430976
H  1.17658604 -2.56351466 -1.52493836
H -0.40347703 -3.12061354 -3.42768151
H -1.00708848 -1.44917995 -3.46433088
H -1.89614911 -1.8064791  -0.14286211
H -2.70911274 -1.15570259 -1.50576791
H -4.38559338 -3.32724415 -1.42831859
H -3.22571594 -3.95271558 -0.26979712
H -6.08539114 -1.50473587 -0.47268693
H -6.06627204 -1.68276098  1.18376669
H -6.14678239 -3.21288955  0.25311158
