53

O -8.43559471 -2.61998402  3.69700846
S -7.97523161 -3.86399694  4.45331276
O -6.7847344  -4.62534358  3.95130654
N -9.16443944 -4.8696492   4.91031109
S -10.7111762   -4.33794115   4.93659658
O -11.6150845   -5.2817035    5.61756504
O -11.05797336  -2.92600548   5.2591549 
C -11.34081482  -4.41505986   3.17299541
F -12.64825451  -4.15683909   3.11455341
F -11.07905971  -5.71383934   2.79737861
F -10.84815328  -3.48337454   2.30574364
C -7.47253669 -3.05715931  6.0690877 
F -6.40582196 -2.28992279  5.98096763
F -8.50740832 -2.35138459  6.54165979
F -7.27444201 -4.10717502  6.87453822
Li -10.03707647  -1.79798557   4.07427811
C  4.50518775  3.05807313 -5.05583707
O  5.47015788  2.01992223 -4.81124081
C  4.90808784  0.70662936 -4.70188362
C  6.02458511 -0.39034486 -4.91094813
O  6.00995265 -1.35547402 -3.84473836
C  7.07781069 -1.22106733 -2.93636384
C  6.98506066  0.05122224 -2.08951767
O  5.82326626  0.03099199 -1.2432047 
C  5.50579472  1.24877944 -0.69078271
C 4.17622125 1.18751578 0.03139164
O 3.56443401 2.47794375 0.15876236
C  2.13240622  2.39097995 -0.09196808
C 1.56002461 3.7922702  0.09283404
O  0.20813525  3.83836143 -0.40408802
C -0.7871655   4.16897999  0.51385477
H  3.93209266  2.87237957 -6.00083978
H  3.79137756  3.20176883 -4.20480823
H  5.08821133  3.94755362 -5.2682168 
H  4.09847005  0.48326864 -5.4137401 
H  4.46818365  0.53197905 -3.65449434
H  6.99478826  0.0241427  -5.11435071
H  5.64189306 -0.85800986 -5.8791118 
H  8.1110344  -1.27919344 -3.48155288
H  7.05841125 -2.02324781 -2.19551697
H  6.90363884  0.95095377 -2.70955588
H  7.88442618  0.11854586 -1.47313914
H 6.19370792 1.64362709 0.1024003 
H  5.5098641   2.10306553 -1.43166171
H 4.25511175 0.81873375 1.04053022
H  3.61739212  0.48065698 -0.63826113
H  1.91143927  2.05297062 -1.13825063
H 1.736822   1.70263866 0.67981762
H 1.67021657 4.03967368 1.13312379
H  2.24032286  4.46284885 -0.42826647
H -0.59435373  3.43658279  1.40243741
H -1.76160589  3.99335593  0.04374161
H -0.5576016   5.18828589  0.85698792
