53

O -4.8111933   3.11201095  2.9764825 
S -3.36232956  3.16242594  2.61862776
O -2.62315924  4.4237424   2.76759076
N -3.16867182  2.55980562  1.1058993 
S -4.10171427  1.49964965  0.35244728
O -3.47212016  0.88757206 -0.83199204
O -4.76610049  0.57994037  1.35718335
C -5.33167685  2.57459121 -0.56430199
F -5.89127962  1.81533299 -1.46750956
F -4.75946107  3.67898692 -1.04077873
F -6.27783535  3.02353881  0.40120636
C -2.56991643  1.87084993  3.83267868
F -1.7734256   2.46127999  4.66943317
F -3.56742842  1.4771943   4.60861785
F -1.94456509  0.80901224  3.20383558
Li -5.71403533  1.64318331  2.44610434
C 1.68201918 2.8789399  1.80817581
O 1.51404095 2.33502666 0.54996703
C 0.78841615 1.08310782 0.56039551
C  0.41702459  0.76753275 -0.80708336
O  1.5226613   0.38879865 -1.62492309
C  1.13346198 -0.03710962 -2.93073084
C  2.49848837 -0.19255867 -3.70321863
O  3.2560594  -1.36167345 -3.27795153
C  4.03565537 -1.05828806 -2.11175842
C  4.47839095 -2.30226625 -1.31434695
O  3.48151219 -3.22531773 -1.0156554 
C  2.33294426 -2.76899947 -0.32001596
C  1.19443328 -3.71344475 -0.61965971
O  0.14059949 -3.35687046  0.23251837
C -0.43733878 -4.41070799  0.93242888
H 0.67201532 2.92810564 2.32004557
H 2.46325544 2.41954752 2.43039577
H 1.94420098 3.94331021 1.66425214
H -0.09844169  1.25993077  1.13517634
H 1.4058559  0.36532987 1.04286387
H -0.18696039  1.65609642 -1.16577054
H -0.27560789 -0.10534649 -0.69210062
H  0.44414661  0.67273889 -3.53023838
H  0.54304876 -0.94427689 -2.9874761 
H  3.13516993  0.70461474 -3.60534179
H  2.14072042 -0.38469024 -4.74835588
H  4.97537372 -0.60851941 -2.45207503
H  3.46276766 -0.41512575 -1.38595549
H  4.96732359 -1.96013543 -0.3626046 
H  5.27260133 -2.86727921 -1.83416737
H  2.55667555 -2.7809363   0.76722702
H  2.0962169  -1.74845681 -0.74520775
H  0.68170962 -3.76611527 -1.606662  
H  1.60660684 -4.82396831 -0.44660417
H -0.02210298 -4.50873381  1.98675955
H -0.18251393 -5.34357036  0.44841893
H -1.50551777 -4.29780579  0.97375424
