53

O -1.99592927  2.6348461  -2.99146893
S -2.88423474  2.2742435  -4.14526006
O -2.96807245  3.11543693 -5.35013416
N -4.28075407  1.71295064 -3.65476335
S -4.49435747  1.09656325 -2.12705917
O -5.78706547  0.35758485 -2.1196655 
O -3.17213174  0.65361424 -1.55283037
C -4.88969418  2.56809391 -0.96660213
F -3.85643805  3.48843216 -1.075636  
F -4.81760888  2.08935675  0.22755155
F -6.07421461  3.17797337 -1.13397307
C -2.08519396  0.69274758 -4.9768241 
F -1.71892773 -0.24282647 -4.11008831
F -2.97016814  0.1093861  -5.8344593 
F -0.98453525  1.07163914 -5.5759391 
Li -1.85128963  2.0929816  -1.39182192
C -2.94956249  1.45061451  2.08076106
O -2.19455316  0.87814054  1.04198691
C -2.28686993 -0.54408878  1.07331723
C -1.32730245 -1.24402634  0.07056299
O  0.09632425 -1.17294484  0.34914255
C  0.89297812 -0.42799177 -0.52980303
C 1.74189727 0.58282837 0.19414966
O 3.03443658 0.02412191 0.42650358
C 4.0083502  0.92310273 1.10450388
C 5.30286832 0.14540291 1.14303001
O  5.38719979 -0.85036757  2.07929138
C  4.76008934 -2.11062869  1.89270464
C  4.0014156  -2.54597659  3.12637334
O  3.30299807 -3.73493633  2.7230272 
C  2.02002912 -3.42937643  2.2351006 
H -2.93632111  2.49295769  1.82408282
H -3.98125947  1.02903812  1.9876527 
H -2.61722747  1.23062579  3.11062085
H -3.2250141  -1.07314178  0.85357383
H -1.81620657 -0.92957179  2.06130291
H -1.48967793 -0.92776582 -1.03680994
H -1.59749359 -2.34507121  0.25017461
H  0.16381376  0.159778   -1.1967095 
H  1.57295456 -1.03019115 -1.2461914 
H 1.08342209 0.77383035 1.1306414 
H  1.69186927  1.44433736 -0.57466833
H 4.06278108 1.9069409  0.60143236
H 3.66903549 1.06373418 2.17390496
H 6.14141232 0.86941229 1.43163115
H  5.72987159 -0.21948556  0.14829116
H  4.15920076 -1.9414655   1.05621554
H  5.56077548 -2.84963815  1.52561856
H  4.57521768 -2.87107746  4.03385849
H  3.3631367  -1.64802849  3.43853562
H  1.19688031 -3.51994616  2.96696691
H  1.81427386 -4.10418688  1.45963142
H  1.9188723  -2.34798201  1.76856578
