53

O -0.19139902 -0.67728565 -5.89756451
S -0.79067301 -1.32440255 -4.65762725
O -2.0382837  -0.63573726 -4.20790003
N  0.18086762 -1.65327374 -3.47399301
S  1.66288989 -2.25251014 -3.779615  
O  2.3020414  -2.75107571 -2.52041371
O  1.8931602  -2.90325115 -5.15771004
C  2.60718856 -0.57193465 -4.09635505
F  3.82132412 -0.5591482  -3.54518679
F  1.95602982  0.54242197 -3.76902863
F  2.72130122 -0.52132854 -5.46554966
C -1.30526917 -3.10453135 -5.30538273
F -2.48959107 -2.92936174 -5.82326683
F -0.50014346 -3.65948432 -6.29617815
F -1.29147132 -3.88692529 -4.22006263
Li  1.17656843 -1.806874   -6.52479551
C  0.69963969 -2.57166352  0.0305637 
O  0.4741858  -2.43656974  1.39586577
C  0.17425622 -1.21094882  1.95367722
C  0.21414923 -1.30423308  3.46650799
O 0.22043822 0.0403667  4.0855326 
C -1.00566287  0.56353252  4.50499141
C -0.82708724  1.9488532   5.04826887
O -0.36071761  2.8208708   4.03594345
C 1.06372543 2.81807295 3.85727616
C 1.39302155 3.46826199 2.46381159
O 1.01475434 2.57857992 1.37925695
C -0.38740111  2.85820207  0.94633446
C -0.6530873   1.76277263 -0.10868565
O -2.06558231  1.80310108 -0.55419619
C -2.76240345  0.6041623  -0.79654386
H  1.46049143 -3.4336567  -0.12542103
H -0.24369116 -2.87958475 -0.47598741
H  1.14411021 -1.71196281 -0.43146959
H -0.86323641 -0.81356629  1.67459197
H  0.94187092 -0.41224553  1.74409725
H  1.114386   -1.90828097  3.82191436
H -0.67769502 -1.8421269   3.88574751
H -1.50280512 -0.06209928  5.34091959
H -1.813491    0.52540166  3.74581156
H -0.04839993  1.89980904  5.88075129
H -1.81961088  2.29931298  5.4629426 
H 1.52323571 3.4358123  4.67749413
H 1.46972588 1.83338227 3.92016922
H 2.50038344 3.55495002 2.47918689
H 0.93867438 4.48717298 2.29553569
H -1.08169227  2.65873498  1.75309922
H -0.48213194  3.89393136  0.62558599
H -0.03782087  1.82683068 -1.01152189
H -0.48535511  0.74205078  0.31877107
H -2.57184533 -0.19066513 -0.04162442
H -2.5095498   0.16287194 -1.73194297
H -3.86232227  0.88526866 -0.77662598
