53

O  1.18759775  2.40087432 -4.10407833
S  1.34933418  2.00488957 -2.6478195 
O  1.55328438  0.57515511 -2.47442566
N  0.2030107   2.42180793 -1.5258529 
S -0.83565882  3.63720398 -1.78187669
O -1.05908741  4.480616   -0.5634795 
O -0.66992892  4.35496942 -3.12956009
C -2.43933231  2.5832611  -1.949956  
F -2.75524396  2.14488318 -0.73659289
F -2.17336732  1.60021323 -2.85328665
F -3.40908802  3.33552718 -2.4385282 
C  2.95295473  2.94714833 -2.16588278
F  3.76177648  2.7278905  -3.20570635
F  2.65273109  4.25390752 -2.08781823
F  3.48215591  2.50616108 -1.02929774
Li -0.1214901   3.50679205 -4.75576751
C -0.96237004 -2.03054196  5.5659037 
O  0.31418033 -1.80557425  5.10108028
C  0.56757668 -0.5345552   4.44692685
C -0.15807863 -0.24089888  3.18557102
O 0.41194752 0.91312895 2.5537039 
C 1.08302382 0.78046917 1.30174397
C 2.38209635 0.01422038 1.33104501
O  2.2740687  -1.35871683  1.73020596
C  2.21190849 -2.24234981  0.62816766
C  0.97871287 -2.12388266 -0.38341553
O -0.2617199  -2.37067731  0.33571117
C -1.37353946 -1.9289073  -0.32191004
C -1.4098684  -2.24229172 -1.93265187
O -2.6384042  -2.59539625 -2.52997341
C -3.2445672  -1.62511869 -3.40017615
H -1.32099095 -1.29686524  6.28029767
H -1.7642475  -2.06628941  4.91048601
H -0.85261201 -3.07165242  5.9757409 
H  1.64816799 -0.67627527  4.12483694
H 0.52512279 0.32751563 5.16414974
H -1.25262476  0.00607445  3.41276177
H -0.28038547 -0.99686835  2.44731176
H 1.2929758  1.86421554 1.08169874
H 0.46975119 0.345694   0.51539497
H 3.00197474 0.45242171 2.21138952
H 2.97691929 0.16736793 0.37449305
H  3.11208761 -2.28987027 -0.04540339
H  2.19769299 -3.2153571   1.00757421
H  1.15084294 -2.87474665 -1.13089987
H  0.97849064 -1.15044553 -0.90812978
H -2.29015362 -2.35372207  0.14714545
H -1.46063005 -0.7998713  -0.24891913
H -0.90231358 -1.33334237 -2.45160295
H -0.82474346 -3.1429001  -2.07140288
H -2.65322275 -1.30346667 -4.23191509
H -3.38650652 -0.60336644 -2.95364835
H -4.22021063 -2.07845815 -3.77336277
