53

O  3.57382956 -0.65214253  4.9020565 
S  2.69926058 -1.28574169  3.81758362
O  3.13774046 -2.56881602  3.22262146
N  2.17942312 -0.12697581  2.63801252
S 1.54610403 1.35766778 3.16747393
O 0.4048769  1.78035343 2.34801583
O 1.36664087 1.62152484 4.63151311
C 2.99402017 2.53753761 3.00551699
F 2.46097667 3.74783062 3.14748684
F 3.54856268 2.47601642 1.83263005
F 3.97300644 2.21694668 3.93162811
C  1.05335509 -1.73082226  4.74033809
F  0.93270227 -3.07964391  4.79679461
F  0.96896419 -1.36851933  6.08183839
F  3.04600161e-03 -1.23428884e+00  3.97458824e+00
Li 2.87025254 0.76513973 5.64915979
C -2.20305192 -4.03680143 -1.12364705
O -1.19391313 -3.14369583 -0.60377887
C -1.44771112 -1.79425657 -0.6665119 
C -0.22547517 -0.94161125 -0.20173901
O  0.79985491 -1.20218581 -1.13427593
C  1.79668831 -0.20337336 -1.24200937
C  2.5260419  -0.31150397 -2.57096471
O  1.91487431  0.3402438  -3.64468155
C  0.67426245 -0.24482996 -4.0370106 
C -0.62430303  0.69907591 -4.11587419
O -1.13343857  1.03605273 -2.81097151
C -2.36345455  1.76088584 -2.81831131
C -3.05611225  1.63858813 -1.49305024
O -2.73631043  2.77907515 -0.71219188
C -2.94102676  2.62773891  0.67209089
H -2.28002642 -4.01414995 -2.22298136
H -1.98448574 -5.08150032 -0.68575719
H -3.25022445 -3.76310498 -0.75912727
H -2.28744927 -1.46158932  0.01400891
H -1.56366887 -1.44833162 -1.68076752
H -0.0460888  -1.13471262  0.86643846
H -0.50015109  0.19395128 -0.228932  
H  2.60372671 -0.49310203 -0.48874249
H  1.26895396  0.73279902 -0.99702736
H  2.74646268 -1.36391899 -2.67437417
H  3.49007147  0.19926961 -2.47551537
H  0.75760006 -0.73429144 -5.06146922
H  0.37132628 -1.0290706  -3.35269579
H -1.4305856   0.17182155 -4.70623788
H -0.2988104   1.63048275 -4.60308602
H -2.18877025  2.82333188 -3.04001667
H -2.99356244  1.43843733 -3.73046099
H -4.17095248  1.44135607 -1.64681416
H -2.60802156  0.69107225 -1.12348913
H -2.35743621  1.77826775  1.18551207
H -4.02338617  2.37667394  0.88412188
H -2.75420794  3.5868394   1.14308241
