53

O -2.50812902  3.05323006  4.81216726
S -1.09038173  2.46002379  4.76966175
O -0.01790072  3.36362459  5.21829371
N -0.86534608  1.52580072  3.46112254
S -2.12862672  0.69196527  2.73507373
O -1.52143704 -0.22882623  1.70971517
O -3.37195787  0.55455323  3.62535538
C -2.91784548  2.00617415  1.57004417
F -3.54507904  1.26017266  0.58231848
F -1.99204024  2.72822397  0.94193101
F -4.02743577  2.71246483  2.13127493
C -1.16417434  1.06644261  6.04957432
F -1.05199157  1.55615901  7.28488613
F -2.27075142  0.22552134  5.80384081
F -0.11665758  0.28883516  5.83824854
Li -3.89182848  1.88931563  4.62794997
C 3.67763586 1.28170893 1.46555619
O 2.57372343 1.54808264 0.59355965
C 1.76310132 0.39132229 0.45491504
C  0.47525084  0.85677399 -0.24032236
O  0.67049399  0.89081333 -1.68125617
C -0.49883362  1.21014904 -2.42825278
C -0.15655478  1.40297671 -3.92515951
O  0.25930516  0.32676537 -4.74324132
C  1.54745512 -0.18546547 -4.59455812
C  1.4118992  -1.77670402 -4.65269926
O  0.36435217 -2.26832364 -3.86196066
C  0.77622931 -2.63819872 -2.57981702
C -0.11553361 -3.80644357 -2.07183862
O  2.54961371e-03 -4.29241752e+00 -7.08606592e-01
C -0.43313784 -3.47524255  0.2749819 
H 3.32157338 0.90675996 2.50985604
H 4.24383873 0.36890781 1.06788002
H 4.35360241 2.22295983 1.55950193
H 1.54267339 0.04523903 1.5544648 
H  2.27424425 -0.3840991  -0.06741462
H 0.38610443 1.9480819  0.0638966 
H -0.28421858  0.18248692  0.15842471
H -1.13222274  2.08420943 -2.04322268
H -1.20322514  0.30222928 -2.33047834
H  0.59467103  2.25513473 -3.88338496
H -1.11874697  1.77124544 -4.33491008
H  2.09356181  0.19697682 -5.47200066
H  1.96161046  0.17772113 -3.62350488
H  2.38568147 -2.21913461 -4.36280217
H  1.10791047 -2.05768958 -5.65961344
H  1.84701023 -2.92660302 -2.57463164
H  0.76188496 -1.81112527 -1.82221565
H -1.162377   -3.41307534 -2.30581212
H  0.08514434 -4.68369734 -2.70141989
H  0.11180463 -2.51025258  0.41916567
H -0.54177368 -3.93706065  1.28699166
H -1.46510495 -3.13869235  0.09847141
