53

O 1.93847513 2.28824406 7.57024108
S 2.2179632  1.00098197 6.74810025
O 3.60180406 0.91473584 6.23677259
N 1.01518756 0.58571583 5.70426311
S -0.5155677   1.13704976  6.06457064
O -1.37114902  0.54039256  4.97750522
O -0.9698426   1.17184555  7.48928743
C -0.66863947  2.978153    5.5606024 
F 0.21400211 3.19740256 4.57898769
F -0.37036001  3.77857397  6.58700539
F -1.89892784  3.1340772   5.14991335
C  2.12902318 -0.2781637   8.13546287
F  3.38706444 -0.3559039   8.62899958
F 1.31084576 0.16737529 9.21393696
F  1.63174892 -1.47348909  7.83096958
Li 0.25957046 2.09762677 8.59870249
C  1.61481423 -0.08653449  2.3253372 
O 1.77888683 0.37532223 0.98160931
C 0.60752964 0.70483344 0.25504979
C  0.98596733  1.60107846 -0.94657204
O  1.72350538  0.96439812 -1.93370626
C  0.9428369   0.31380426 -2.96286602
C  1.88363125 -0.68237635 -3.6649753 
O  1.27347318 -1.28656017 -4.82802109
C  0.66374348 -2.59910538 -4.43820695
C -0.1934367  -3.22592753 -5.47744527
O -1.55565498 -3.01569498 -5.27851446
C -2.12060824 -1.97375742 -6.03768952
C -3.13162807 -1.30757276 -5.02645936
O -3.7889821  -0.26746214 -5.62155321
C -3.97583469  0.90286213 -4.798443  
H  1.28780301 -1.19977323  2.43468231
H 2.60532465 0.10274657 2.77896484
H 0.94526698 0.52243953 2.96664338
H -0.11818318  1.30942598  0.87677312
H  0.09647916 -0.17762326 -0.0118746 
H  1.4341698   2.65491555 -0.69207795
H  0.0316955   2.13811954 -1.38001449
H  0.60750315  1.13592951 -3.67134234
H  0.07245423 -0.24951303 -2.49669965
H  2.33572037 -1.32276177 -2.87816937
H  2.69375548 -0.01368312 -4.12416422
H  1.5882212  -3.19637412 -4.21825562
H  0.11181122 -2.53773421 -3.50701793
H  0.04384889 -4.32481823 -5.43581159
H  0.11803975 -2.93786365 -6.427337  
H -1.30136034 -1.28548165 -6.35101021
H -2.6647466  -2.37398448 -6.94186449
H -3.77072919 -2.19720185 -4.6345367 
H -2.64297645 -0.8953795  -4.15092453
H -3.06035285  1.02360882 -4.17556395
H -4.81478804  0.75857383 -4.12169244
H -4.21839842  1.76450774 -5.46157104
