53

O  4.74873194 -2.34553119  1.92827741
S  3.59569049 -1.88928107  1.103456  
O  3.82682307 -1.31187443 -0.20552499
N  2.48219347 -0.99888617  1.91055455
S  2.56065527 -0.76933379  3.48213329
O 1.44212705 0.03066223 3.95611563
O  2.99048215 -2.03517274  4.25296554
C 4.08485099 0.29751746 3.86288553
F 4.12446724 0.55643941 5.14726341
F 4.03465081 1.35828362 3.12374761
F  5.30444836 -0.34648544  3.61478822
C  2.66642289 -3.54280169  0.94743084
F  3.06294744 -4.07084929 -0.33591541
F  3.04975412 -4.40892971  1.83824043
F  1.40880309 -3.39786198  1.01152257
Li  4.68791495 -2.52605416  3.70777425
C -1.30906411 -0.91426994  2.43846975
O -2.53439414 -0.68708411  1.81877522
C -2.46161927 -0.01793955  0.5670748 
C -3.90220876  0.38642555  0.13077411
O -3.92929906  1.31012894 -0.91849019
C -4.14482063  0.91688123 -2.27113367
C -3.58278365  1.9838333  -3.22480044
O -2.15794911  2.09877094 -3.14377412
C -1.83403378  3.16815353 -2.27194316
C -0.34263175  3.26727304 -2.11058436
O  0.23001814  2.3498755  -1.22298782
C  0.1833513   1.03995072 -1.67067617
C  1.06841884  0.12362412 -0.77569059
O  0.74217649 -1.29359588 -0.75679253
C  0.99952398 -1.94034716 -1.97666408
H -1.43631517 -1.65645146  3.20080957
H -0.51447304 -1.24404814  1.75723106
H -0.99378033  0.10888786  2.76173078
H -2.07583434 -0.83021318 -0.13405439
H -1.81293972  0.89679484  0.44395636
H -4.39935985  0.89639244  0.95979352
H -4.58366815e+00 -4.27980037e-01  2.54767054e-03
H -5.20289068  0.8332488  -2.57174057
H -3.68141215 -0.02545839 -2.47879443
H -4.05152193  2.94669269 -2.92077118
H -3.89210882  1.72464103 -4.26378488
H -2.20401152  4.13951677 -2.71903753
H -2.33139313  3.04534292 -1.26578184
H -0.09509929  4.28937516 -1.70085654
H  0.16439169  3.13099782 -3.09988026
H -0.81175362  0.55058373 -1.69140747
H  0.56353565  0.99821368 -2.72249519
H  2.12851663  0.31338603 -0.9206023 
H 0.84654159 0.35802273 0.26735736
H  0.58816856 -2.96151712 -1.91414796
H  2.06448212 -2.05639357 -2.0692523 
H  0.63527768 -1.42155593 -2.87809112
