53

O  3.62671171 -0.35921311  4.01206104
S  2.31389237 -0.74869545  3.33713358
O  2.34702826 -1.77616681  2.29868039
N 1.43083275 0.54265456 2.96578428
S 1.86143507 2.01624578 3.40991888
O 0.9585671  3.02121515 2.8983951 
O 2.20433823 2.17850445 4.85950458
C 3.59162403 2.1826924  2.48080155
F 3.61456818 3.42330518 2.02814037
F 3.67655208 1.27840024 1.45536793
F 4.61716168 2.02344738 3.39227582
C  1.40288264 -1.44615349  4.8926113 
F  2.19251247 -2.49146907  5.38889936
F  1.29912208 -0.57486021  5.89334486
F  0.27311541 -1.98689609  4.55893226
Li 3.42765409 0.96584884 5.51027491
C -1.35874872  0.21378648  1.65766894
O -2.56812287  0.14424699  0.92120452
C -2.47632209  0.55651508 -0.44401909
C -3.44076138 -0.30083669 -1.22124865
O -3.39185387  0.05185678 -2.60631627
C -2.53580289 -0.87729814 -3.34230618
C -1.95885307 -0.29960301 -4.60445831
O -0.71720554  0.38394278 -4.3416903 
C -0.93514296  1.61832804 -3.67466234
C  0.35429704  1.8489388  -2.9118315 
O  0.44101923  0.93340571 -1.79053091
C  1.36419997 -0.16369346 -1.97333203
C  0.9500487  -1.16946788 -0.89522762
O -0.35913819 -1.75293729 -1.07065667
C -0.75145202 -2.80727015 -0.13669096
H -0.62816377  1.0281461   1.38101682
H -1.68278132  0.19302809  2.67414097
H -0.6658445  -0.68272035  1.49077173
H -1.45659629  0.43104034 -0.83291638
H -2.73334121  1.60546823 -0.5148327 
H -4.45059901 -0.2222502  -0.8515802 
H -3.11644794 -1.31953445 -1.23259128
H -3.11520822 -1.81475193 -3.52844986
H -1.72514443 -1.15559032 -2.63923596
H -2.73584819  0.29282075 -5.21547104
H -1.63578386 -1.19840347 -5.17013155
H -1.20514071  2.39689464 -4.4015    
H -1.69828723  1.5796362  -2.87840041
H  0.44725921  2.8529068  -2.41851303
H  1.26478867  1.80158087 -3.58072635
H  1.18834997 -0.67287367 -3.01054723
H  2.50331462  0.09054511 -1.74070125
H  1.66945641 -1.96901308 -0.92507895
H  1.00668151 -0.7116381   0.11574219
H -1.83781607 -2.98200828 -0.26497261
H -0.61304931 -2.48175747  0.91231282
H -0.2339578  -3.69029962 -0.3163646 
