53

O -2.63169355 -4.97642847  3.06153854
S -2.43249896 -3.72690679  3.89851552
O -1.26647549 -2.87792548  3.60192493
N -2.69637176 -3.94422404  5.49315858
S -3.07116472 -5.44279571  6.10316689
O -3.5525055  -5.34971991  7.44385747
O -3.86528934 -6.4391459   5.28886962
C -1.24812723 -6.24491183  6.10201508
F -1.27736179 -7.43737904  6.70800865
F -0.36085363 -5.42255016  6.66827003
F -0.90496967 -6.45684728  4.84415552
C -4.04975093 -2.61514496  3.55380554
F -4.45180117 -2.90207829  2.3479264 
F -5.0261398  -3.02108771  4.37668373
F -3.71518722 -1.31112425  3.71004038
Li -3.35485985 -6.45799355  3.48281846
C  3.3204639  -0.42439787 -2.14785124
O  2.29031401 -0.79571674 -3.01404655
C  1.0180365  -0.46997511 -2.63506834
C  0.49417342  0.78449155 -3.37575902
O -0.96808924  1.07842921 -3.25568935
C -1.23447307  2.32651308 -3.60566562
C -1.71387479  3.19257137 -2.39549924
O -0.89751647  3.40207721 -1.21705758
C -0.84740906  2.33573359 -0.29708296
C 0.44058626 2.26207666 0.45723753
O  1.59157509  2.15742697 -0.33021225
C  2.16005227  3.39747535 -0.80138845
C  3.44812955  3.17976462 -1.54149469
O  3.16490174  2.76500294 -2.83725524
C  3.47012575  3.53009082 -3.98239196
H  3.66238484  0.62055145 -2.31471362
H  2.93019963 -0.60580461 -1.07605918
H  4.20315442 -1.05483916 -2.42650923
H  0.93652654 -0.29280206 -1.50739149
H  0.34327501 -1.33195234 -2.75521651
H  0.7967838   0.6771667  -4.42468303
H  1.10692799  1.64806954 -3.03463361
H -2.02701124  2.38602524 -4.36739322
H -0.35667039  2.92069358 -4.01319123
H -2.72608512  2.84079825 -2.04891732
H -1.80823765  4.20081796 -2.88116697
H -1.63837391  2.39374514  0.49136088
H -0.91782755  1.36729096 -0.8735475 
H 0.47057093 1.37430563 1.06649936
H 0.57237314 3.07322131 1.21183686
H  1.44456977  3.93215842 -1.46111707
H 2.37631521 4.06053023 0.08563297
H  4.06943196  4.11456935 -1.51808449
H  4.13911971  2.39926539 -1.017806  
H  2.59406967  3.50200859 -4.60011982
H  4.28407318  3.07266862 -4.54076266
H  3.71248483  4.60621153 -3.69954752
