53

O  3.49185143 -1.33275721  4.56302947
S  2.4893343  -1.57996397  3.45179958
O  2.89574415 -2.23479983  2.20383719
N  1.54917006 -0.24055577  3.13293091
S 1.81726728 1.0782035  3.99936967
O 0.93367715 2.1442569  3.47582385
O 1.6862924  0.89016264 5.49816184
C 3.66531568 1.70857744 3.66851695
F 3.74202429 3.02630049 3.59054861
F 4.0990106  1.10984622 2.62197177
F 4.47957496 1.36649741 4.71013257
C  1.17121246 -2.74602651  4.19386474
F  1.66697417 -3.9692735   4.20134924
F  1.03602752 -2.33048641  5.50881659
F  0.01459048 -2.62527343  3.52971602
Li  2.88988516 -0.34513392  6.01409949
C -3.24100578 -2.99147148 -0.5541726 
O -1.80336026 -2.87845183 -0.44997508
C -1.50473757 -1.53612809 -0.01621136
C  0.06595135 -1.34387365  0.09456405
O  0.71257565 -1.27285006 -1.16650882
C  1.33606101 -0.07683756 -1.59794257
C  1.56563186 -0.09997038 -3.12342081
O  0.46272855  0.22121484 -3.94608774
C -0.66387753 -0.64152968 -3.83173151
C -1.92159051  0.14745034 -4.21308658
O -2.45475006  0.87188667 -3.11960914
C -2.32753621  2.35222259 -3.26238247
C -2.29177733  2.87610466 -1.80352578
O -0.9334174   2.69129094 -1.38360216
C -0.63652649  3.00350876  0.01690805
H -3.65435851 -2.02419188 -1.09786977
H -3.37815544 -3.96756029 -1.1629125 
H -3.752161   -3.06138552  0.45480557
H -2.04425114 -1.42058399  0.95483554
H -2.02058882 -0.83132543 -0.71975709
H  0.54310272 -2.21252484  0.61733625
H  0.20750844 -0.50769333  0.81981791
H  2.29379984  0.05439122 -0.99952681
H  0.68177002  0.76016145 -1.33114238
H  1.93319742 -1.12699645 -3.39347476
H  2.44643856  0.60722011 -3.40518621
H -0.50889213 -1.52103065 -4.57325304
H -0.75235465 -1.02972729 -2.78628486
H -2.72546563 -0.58486262 -4.60597392
H -1.65426029  0.76213833 -5.0993048 
H -1.30507511  2.52001802 -3.69455245
H -3.13585102  2.62739691 -3.99264276
H -2.57511917  4.01671039 -1.8714215 
H -3.04503281  2.2613324  -1.21596752
H -1.06680876  2.3369024   0.78014661
H -0.91258111  4.04165348  0.21677211
H 0.43281724 3.05781748 0.09837242
