53

O  5.06344035 -2.63538146  0.43230712
S  3.72618241 -2.07141033  0.01836632
O  3.74310354 -1.42926491 -1.30639256
N  2.92318463 -1.11194184  1.14071437
S  3.02501351 -1.63979396  2.7547268 
O  1.74942994 -1.6291217   3.49159789
O  3.80795367 -2.91628466  3.02076532
C  4.2543942  -0.44449392  3.52410215
F  4.15375978 -0.60645961  4.84399245
F 4.09891548 0.82409266 3.20763459
F  5.48447589 -0.85936276  3.19506289
C  2.60166736 -3.66670665 -0.13153278
F  2.05047657 -3.67564559 -1.29740687
F  3.19625713 -4.82495485  0.16032288
F  1.59260559 -3.51439299  0.74443864
Li  5.530466   -3.03330162  2.18382172
C -1.05065004 -1.42224929  2.15857147
O -2.27774273 -0.81706046  1.91719412
C -2.31174956  0.29774432  1.06902464
C -3.55704822  1.04680619  1.51403699
O -3.91290924  2.11402859  0.60565203
C -4.40326905  1.68976798 -0.62346502
C -4.04101099  2.51055649 -1.89903922
O -2.68122169  2.54722467 -2.23438106
C -1.93387195  3.53563214 -1.42289899
C -0.43729256  3.44586975 -1.79306247
O  0.24544474  2.35519847 -1.27763914
C -0.05127009  1.08777381 -1.90019039
C  0.79128472 -0.0051881  -1.21103061
O  0.35888237 -1.34793296 -1.52899081
C  0.80905327 -1.76911654 -2.83904184
H -1.17790909 -2.36681839  2.75330922
H -0.39788068 -1.66790407  1.27494574
H -0.36429028 -0.72964837  2.74711546
H -2.44461045 -0.0353797   0.0349995 
H -1.35591345  0.77593393  1.15582802
H -3.47408572  1.41261941  2.51892301
H -4.37833507  0.30559942  1.46275069
H -5.5010663   1.66080275 -0.49084874
H -4.09101537  0.57477435 -0.82961529
H -4.39541906  3.62253515 -1.81905668
H -4.5840926   2.06661957 -2.77514896
H -2.16857352  4.58712932 -1.74825864
H -2.07335907  3.43982772 -0.3652637 
H -0.02260986  4.37767593 -1.37019984
H -0.35327097  3.47345061 -2.92602112
H -1.13758202  0.87766367 -1.80410161
H  0.20472982  1.11183109 -3.00878636
H  1.81004165  0.18465304 -1.49255379
H  0.61256458 -0.0157419  -0.1085536 
H  0.3887549  -2.80808193 -3.13490575
H  1.92280002 -1.75562418 -2.93143499
H  0.43316749 -1.12654828 -3.66038322
