53

O -4.49526358  3.19159279  3.2525114 
S -3.00851555  3.05683731  2.90149388
O -2.2361326   4.30956389  2.92243647
N -2.67595645  2.20646724  1.52978706
S -3.81749157  1.31228672  0.87435613
O -3.2661551   0.56933011 -0.26849185
O -4.64986128  0.52805455  1.90644523
C -5.11216688  2.48374575  0.13295065
F -5.97435119  1.7767097  -0.60023144
F -4.49681411  3.49242534 -0.51303515
F -5.77928738  3.02692831  1.20632979
C -2.34867158  1.89817204  4.22611412
F -1.83428048  2.59112306  5.23974132
F -3.44222741  1.24566263  4.61636458
F -1.49605309  0.93793816  3.69327215
Li -5.52234063  1.72170312  2.96837022
C 1.87722563 2.68550659 1.94892282
O 1.51120651 2.23327982 0.71251379
C 0.80657004 0.98420945 0.72659114
C  0.29422482  0.73253759 -0.6940531 
O  1.38430816  0.47058855 -1.60627151
C  1.05234596 -0.03385558 -2.86496097
C  2.23849889 -0.33756416 -3.74353864
O  3.16376521 -1.40540249 -3.41424307
C  4.06064498 -1.02133105 -2.36458778
C  4.50852089 -2.26636659 -1.64992018
O  3.46027672 -3.21673838 -1.41353251
C  2.41409869 -2.86505878 -0.5136766 
C  1.16043413 -3.59062648 -0.92525831
O  0.2882322  -3.79466292  0.19162391
C -1.05327256 -3.98603852 -0.13165972
H 0.97631035 2.85385366 2.62313968
H 2.56769121 2.13018506 2.56049621
H 2.29582791 3.72584298 1.73492641
H -0.00690562  1.06968536  1.44827937
H 1.41685994 0.19315187 1.1758881 
H -0.26585139  1.65338436 -1.01317607
H -0.37805471 -0.18796236 -0.81575722
H  0.37025131  0.65552481 -3.47912772
H  0.3751249  -0.9526086  -2.84347569
H  2.82659089  0.59225865 -3.66480028
H  1.82713521 -0.5227036  -4.73387903
H  4.96960236 -0.46961942 -2.74500594
H  3.45440686 -0.38345074 -1.61956992
H  5.10601526 -1.93379497 -0.72911532
H  5.17880024 -2.85315684 -2.30226844
H  2.67614637 -2.93701129  0.55824745
H  2.0767497  -1.81365768 -0.57510445
H  0.57443655 -3.12215407 -1.79070518
H  1.35928484 -4.64326128 -1.40703458
H -1.29307454 -4.98899758 -0.573606  
H -1.37006616 -3.28257722 -0.90765179
H -1.7487929  -3.71994882  0.75293658
