53

O -3.88266484  1.50570914 -2.39979038
S -3.55115715  0.07045222 -2.14725949
O -2.86269293 -0.24368116 -0.88388441
N -2.82137769 -0.6489962  -3.39454554
S -3.39250452 -0.47874436 -4.88721923
O -3.08710686 -1.63549982 -5.66410746
O -4.76396539  0.18810093 -4.98605287
C -2.36020247  0.92977836 -5.66347508
F -2.69278973  1.22206723 -6.89485417
F -1.09242379  0.70302989 -5.74514363
F -2.69409793  2.10761262 -4.94788365
C -5.23304809 -0.93192445 -2.07383749
F -5.43178622 -1.19651865 -0.74830122
F -6.25097319 -0.15268318 -2.46450723
F -5.26900983 -2.03064205 -2.80386383
Li -5.07125665  1.58611259 -3.78269276
C  1.76460111 -0.3355923  -2.34390496
O  2.19325037  0.3540768  -1.1812503 
C  1.06371286  0.88390724 -0.45470392
C  0.27488551 -0.21501192  0.21804346
O  1.11061838 -0.85248967  1.23101333
C  0.77649225 -2.17662325  1.6552497 
C  2.11492997 -2.97327584  1.73411889
O  2.82570706 -2.59145332  2.87640141
C  3.68216064 -1.45630951  2.50173059
C  4.01083172 -0.54353368  3.67352021
O 2.91811665 0.04211407 4.2825251 
C 2.32593291 1.09457779 3.44459097
C 0.84753779 1.23237283 3.8542974 
O 0.07229355 1.8148334  2.79485578
C 0.03918712 3.25451066 2.82396637
H  2.46655038 -0.05769093 -3.15388472
H  1.82224278 -1.47109332 -2.25919408
H  0.77975832 -0.07550584 -2.69536753
H  0.31288451  1.29511149 -1.14999621
H 1.37952853 1.72844224 0.23650877
H -0.16090113 -0.87499925 -0.52992556
H -0.50932007  0.38928936  0.73279632
H  0.14678983 -2.66396293  0.8884207 
H  0.27508077 -2.10545546  2.63618315
H  2.62514519 -2.75534986  0.75808967
H  1.8892968  -4.08474537  1.81048155
H  4.62433136 -1.89163866  2.13456609
H  3.22075125 -0.75907623  1.73375237
H 4.68969931 0.26588125 3.26696484
H  4.60290538 -1.09774885  4.47025929
H 2.8357488  2.06074519 3.78037588
H 2.32705944 0.83127097 2.37666672
H 0.44006505 0.19496041 4.08173168
H 0.7328159  1.78249127 4.77612287
H -0.38837201  3.48851399  1.84300899
H 1.04592925 3.63719697 3.06231795
H -0.72119023  3.63708713  3.57708567
