53

O  2.37221631 -1.47258944 -4.40243457
S  1.24399431 -1.3454065  -3.45857773
O  0.21049815 -0.247646   -3.76715548
N  1.50783714 -1.3537433  -1.86203957
S  2.91340473 -1.89847471 -1.23299044
O  2.947294   -2.00738348  0.22739575
O  3.44677162 -3.07017492 -1.99109486
C  4.29962353 -0.64954388 -1.58195656
F  5.43009964 -1.07176662 -0.87048357
F  4.11454138  0.62906306 -1.32478064
F  4.57894272 -0.685508   -2.87518586
C  0.20587636 -3.01360662 -3.69607386
F -0.44381725 -2.8018374  -4.84675738
F  1.01586117 -4.10482281 -3.78845269
F -0.646298   -3.04398896 -2.63620728
Li  3.5259768  -2.74160284 -3.751603  
C -1.27033007 -2.44209482  0.68056486
O -0.90691037 -2.08465824  2.00866222
C -0.29190967 -0.79617776  2.14552804
C -0.43970201 -0.51008885  3.63890307
O -0.17320077  0.80787359  3.96531619
C -1.32255501  1.62507305  4.18673075
C -1.09251822  2.95322518  3.62948191
O -0.69135149  2.79511886  2.29326965
C 0.70304092 2.91204274 1.97900795
C 0.6758771  3.17830429 0.47978079
O  0.13543377  2.10402351 -0.28088795
C -1.2433946   1.97780256 -0.49905558
C -1.51357353  0.79068038 -1.42093686
O -2.85456647  0.67778501 -1.63193816
C -3.25436902 -0.54222693 -2.2885512 
H -1.88337787 -3.41387495  0.63318352
H -1.86228564 -1.62669793  0.3018573 
H -0.33880104 -2.59124067  0.09027685
H -0.8427724  -0.00819355  1.54603884
H  0.73690203 -0.7418267   1.84142993
H  0.27594285 -1.23411084  4.2178723 
H -1.45588489 -0.8514735   3.95416922
H -1.57774889  1.73516195  5.23613791
H -2.23688267  1.20501932  3.67471498
H -0.37006276  3.55868022  4.25635456
H -2.11748368  3.41689064  3.51629603
H 1.26309208 3.66938537 2.55470518
H 1.2439381  1.98637982 2.05897373
H 1.69338696 3.31437238 0.11937522
H 0.03337352 4.02853875 0.31057293
H -1.78313474  1.88520853  0.45902703
H -1.69334983  2.84871077 -1.00956359
H -0.94888536  1.02219169 -2.40584548
H -1.05379928 -0.15535615 -1.04374786
H -4.20148222 -0.3759678  -2.87544169
H -3.6263469  -1.26587687 -1.55188062
H -2.43713049 -0.97357061 -2.91198424
