53

O  0.33603893 -4.88567187  2.75958268
S -0.52949864 -3.71638052  3.22338702
O -0.3059621  -2.45644652  2.52870148
N -0.66640759 -3.47144031  4.78245263
S -0.18563675 -4.5560128   5.94957026
O -0.5352539  -4.16450161  7.30673808
O -0.45263578 -5.98872584  5.40949441
C  1.78604247 -4.47842466  6.06129344
F  2.10973718 -5.09841532  7.22812915
F  2.26508668 -3.26751383  5.98380564
F  2.33916403 -5.27629978  5.12180983
C -2.31577464 -4.44108495  2.8590635 
F -2.34717828 -4.64168013  1.50277666
F -2.59862036 -5.59701992  3.52983825
F -3.19863375 -3.5245832   3.16431355
Li  0.20970673 -6.31285403  3.82991036
C -0.83617387 -1.72585644 -0.35252735
O -0.68726067 -1.22267506 -1.64426535
C -1.20446541  0.12178986 -1.71281266
C -0.77917901  0.63243858 -3.11845525
O -1.43943722  1.91959553 -3.30653381
C -0.62111059  2.84597492 -3.99329797
C -1.13556698  4.26418614 -3.62872543
O -0.67430231  4.60278324 -2.38538115
C -1.41589923  4.20918271 -1.21108843
C -0.44730175  4.00048492 -0.02501642
O  0.31191886  2.83837999 -0.21175935
C  1.458786    3.0797835  -0.96449438
C  2.5212859   1.97902543 -1.07551313
O  2.1537395   0.99255188 -2.05891505
C  2.93237504  1.02288752 -3.21422597
H -0.28792112 -1.09581152  0.40342461
H -1.85503835 -1.71236019 -0.00916489
H -0.44524992 -2.76151084 -0.2547718 
H -0.8359253   0.79398585 -0.9106796 
H -2.26169069  0.09311131 -1.52551566
H -1.04739468 -0.06816579 -3.93694118
H  0.32115328  0.80249455 -3.16400613
H -0.64361068  2.65740645 -5.14527375
H  0.50282162  2.81498407 -3.72482541
H -2.27649576  4.318893   -3.67801798
H -0.83767339  5.02218565 -4.40986174
H -2.16799021  5.01352818 -0.97446094
H -1.95393364  3.23828643 -1.45854655
H -1.00612391  3.87597044  0.90348728
H  0.14121158  4.95712422 -0.02839716
H  1.12813022  3.59422345 -1.88733626
H  1.88963992  3.9751858  -0.49342951
H  3.4960513   2.3471527  -1.29077162
H  2.60117852  1.45404953 -0.1297439 
H  4.0247351   0.948619   -2.99804075
H  2.6618249   1.94476264 -3.8144654 
H  2.80471877  0.10240762 -3.81051692
