53

O -2.2331162   0.19420828 -3.19207763
S -1.95720699  1.66927499 -3.40078319
O -0.78484712  2.36211401 -2.73528753
N -3.27438927  2.62303283 -3.44539766
S -4.73599148  1.9923753  -3.21245819
O -5.81079775  2.93445994 -3.69058354
O -4.96411074  0.50274264 -3.52900648
C -4.81468759  2.24394212 -1.24673737
F -3.79027543  1.71996516 -0.62705024
F -5.94520476  1.79634842 -0.72439044
F -4.78221538  3.5419606  -1.05949717
C -1.69596978  1.64257876 -5.31504986
F -2.89566284  1.69374616 -5.97784275
F -0.97548311  2.7229225  -5.63151635
F -1.01232797  0.55570452 -5.73263337
Li -3.7104262  -0.79268747 -3.7637031 
C -1.28669526  2.54485815  3.90061331
O -2.32145237  1.70491573  3.38864839
C -1.79866901  0.3623122   3.1419629 
C -1.26059895  0.16653271  1.73218201
O 0.0070059  0.7216351  1.67895207
C 0.56375081 0.59069541 0.37544456
C 1.93537758 1.002014   0.15933596
O 2.96736647 0.20769696 0.64732907
C  2.94523811 -0.18757221  2.0763391 
C  4.2217289  -0.96632402  2.5096962 
O  4.08472598 -2.30867933  2.22795738
C  4.50622659 -2.54684502  0.89884993
C  3.4555219  -3.2508697  -0.05178094
O  3.13191982 -4.58068721  0.26487632
C  1.88013547 -4.95227473 -0.34012732
H -1.65012275  3.56172167  4.25913672
H -0.66170403  2.12964526  4.74503568
H -0.52506448  2.66045355  3.08631537
H -2.70617918 -0.24344882  3.32138153
H -0.94912277  0.04401397  3.7826551 
H -1.80309258  0.52149664  0.8247963 
H -1.12085241 -0.9076346   1.78996344
H -0.09422552  1.16010914 -0.36764688
H  0.37151792 -0.57331496  0.06498306
H 1.93677525 1.99948121 0.59015687
H  2.18767187  1.23976762 -0.90902345
H 2.73654236 0.72134069 2.75803296
H  2.03487422 -0.84203538  2.34188601
H  4.1734937  -0.77143406  3.63682955
H  5.17721182 -0.61319547  2.12343497
H  4.81652215 -1.62223076  0.27813083
H  5.42292584 -3.23003718  0.89333885
H  2.49539872 -2.69487064  0.13325386
H  3.83822188 -3.19208689 -1.15412124
H  1.76564594e+00 -6.02948089e+00 -1.66441110e-03
H  1.8433177  -4.96384947 -1.44886605
H  1.06137502 -4.26450738 -0.07427315
