53

O -8.88220532 -2.80349452  3.54379142
S -8.71522802 -4.07247379  4.35204372
O -7.46715713 -4.80490431  3.95935655
N -10.12214117  -4.92975063   4.60243493
S -11.56080913  -4.15141405   4.88245258
O -12.52837717  -5.16922132   5.32307596
O -11.31765192  -2.80768922   5.53444653
C -12.1940336   -3.60821955   3.14832943
F -13.51347859  -3.92349748   3.19890008
F -11.5822204   -4.32301321   2.17119668
F -11.91223041  -2.35022563   2.80459417
C -8.29835432 -3.52272276  6.19249599
F -6.98064948 -3.22892569  6.16792009
F -8.94212296 -2.32863496  6.49811339
F -8.73321595 -4.37732966  7.0722599 
Li -9.92535398 -1.75355576  4.83095161
C  4.9265439   2.87773725 -5.20322339
O  5.70379915  1.72327268 -5.14146305
C  5.0497437   0.48528958 -5.09359849
C  5.84696505 -0.64680292 -4.4428999 
O  5.90491394 -0.37805233 -3.04741513
C  7.12036808 -0.57072858 -2.41857985
C  7.65781678  0.66816172 -1.6773619 
O  6.73068799  1.19237253 -0.76829095
C  6.00044122  2.33111596 -1.19288147
C  4.58921985  1.9457892  -1.70078243
O  3.73499352  1.49256379 -0.64469844
C  2.57093943  2.28116826 -0.54954047
C 1.58650782 1.92164158 0.51490824
O 0.53154242 2.8605544  0.35324506
C -0.01557234  3.32822106  1.56103628
H  4.29321339  2.90019054 -6.12851585
H  4.20020577  3.00692208 -4.29168703
H  5.59275683  3.80755064 -5.25997477
H  4.53379115  0.18779261 -6.09355775
H  4.18309404  0.54851175 -4.38079405
H  6.88695435 -0.77210437 -4.88803257
H  5.21538919 -1.52189917 -4.6087769 
H  7.88171097 -1.07786222 -3.04221153
H  7.02243613 -1.29454491 -1.55615445
H  7.87379139  1.47784952 -2.39808934
H  8.61897131  0.42886274 -1.17576583
H  5.83321056  2.9755793  -0.30723391
H  6.39485525  2.90281437 -2.05332289
H  4.53844889  1.12004536 -2.5169783 
H  4.1569427   2.93838384 -1.96847525
H  2.85971788  3.34576996 -0.38555692
H  1.9744907   2.40760132 -1.47766012
H 1.24392115 0.83800149 0.46291152
H 2.05419691 2.01143109 1.59721883
H -0.51010891  2.549798    2.21715271
H -0.80407601  4.05451815  1.20424428
H 0.69240539 3.80755631 2.22044299
