53

O -1.9227231   2.53033522  4.96486196
S -0.53717089  1.9364826   4.77062673
O 0.62870132 2.84648297 4.89370971
N -0.43467043  0.89422697  3.54237078
S -1.85381986  0.2409854   2.87729501
O -1.46262197 -0.68073134  1.79675174
O -3.08177294 -0.15811793  3.70398774
C -2.54133885  1.82728584  1.98664306
F -3.15056069  1.44628979  0.80658032
F -1.68012811  2.8409465   1.77998015
F -3.40543276  2.46214683  2.88893039
C -0.52764959  0.76864309  6.44266419
F 0.20079047 1.39073148 7.3603976 
F -1.75229703  0.55545657  6.90511863
F -0.04128488 -0.44336043  6.20856159
Li -3.37682464  1.2307827   4.89533438
C 4.44157017 0.09607346 0.68010551
O 3.29025045 0.82512357 0.22123028
C 2.04514784 0.22012864 0.37772476
C  0.97354744  1.16314745 -0.03633936
O  0.73417701  1.1055236  -1.45078694
C -0.60573973  1.34380362 -1.73249443
C -0.86998516  1.71137797 -3.20013547
O -1.01885358  0.65394904 -4.05478547
C  0.13667781  0.40216065 -4.83301835
C -0.0269192  -1.091904   -5.24256355
O -0.68065357 -1.90353699 -4.25559245
C  0.19667084 -2.39553573 -3.18679948
C -0.69963721 -2.85240111 -2.00956449
O -0.08621252 -3.79868763 -1.13953279
C  0.29186775 -3.34422778  0.1322991 
H  4.27030079 -0.25750373  1.70518995
H  4.70321562e+00 -6.94959268e-01  3.56216646e-03
H 5.31337257 0.83117122 0.63682791
H  1.87491609 -0.18111408  1.36778403
H  1.89733729 -0.69720911 -0.33583598
H 1.23040526 2.25405143 0.25156296
H -0.03312656  0.91510965  0.35191765
H -1.06035892  2.20859967 -1.07765092
H -1.26586906  0.34600167 -1.62251502
H -0.06364674  2.45449538 -3.47898016
H -1.89880913  2.22327325 -3.25983623
H  0.15797242  1.03112487 -5.75051605
H  1.03157905  0.43278425 -4.21873885
H  0.96455033 -1.54568171 -5.4956388 
H -0.64066686 -1.19223467 -6.19436467
H  0.81573923 -3.26571847 -3.54868906
H  0.98763804 -1.5942097  -2.91940312
H -1.09219218 -2.0066219  -1.3602794 
H -1.62030402 -3.36607987 -2.40820721
H  1.24944791 -2.68854479  0.1056058 
H  0.58279793 -4.32124924  0.66921173
H -0.58740343 -2.70906587  0.48543244
