53

O 2.45686724 1.85019687 7.23900815
S 2.45022739 0.44228948 6.78854256
O  3.8236106  -0.14570331  6.59157769
N 1.5202399  0.00759059 5.48797764
S 0.03735683 0.68936991 5.27145044
O -0.66450461 -0.12055916  4.30463509
O -0.58921045  1.0505788   6.6500947 
C 0.23255033 2.42144007 4.47968061
F 1.25795861 2.26282657 3.65500911
F 0.59694722 3.39973537 5.42567482
F -0.83843598  2.91665737  3.83984057
C  1.58641366 -0.64125251  8.20346375
F  2.58636031 -1.28455962  8.89554642
F 0.95650427 0.17886721 9.09939423
F  0.69973312 -1.4931928   7.68925308
Li 0.65328866 2.3008252  7.51140233
C  2.12506522 -1.6581828   1.86819702
O  2.01251375 -0.81093829  0.72682959
C  0.73823439 -0.15728837  0.60988102
C  0.66873372  0.7074196  -0.69365106
O  1.00175032 -0.11527821 -1.78269381
C  1.39911643  0.69230653 -2.93793824
C  1.63529225 -0.24720469 -4.09094403
O  0.398249   -0.79547546 -4.50589187
C  0.14154989 -2.02215848 -3.81577955
C -1.29582696 -2.41569479 -3.68514205
O -2.27572387 -1.35170174 -3.38516961
C -2.20501702 -0.29779114 -4.34864217
C -3.49419871  0.47726033 -4.25795792
O -3.6109926   1.56654841 -5.09756983
C -3.99825512  1.20840869 -6.40613923
H  1.27242225 -2.3202101   2.13476052
H  3.06065151 -2.32205664  1.82756037
H  2.30832202 -0.96622109  2.74206429
H 0.50253306 0.51720614 1.46554756
H -0.14210859 -0.86698133  0.61491825
H  1.49286592  1.4851496  -0.45487333
H -0.31409432  1.12487569 -0.71248829
H  2.31981925  1.28927736 -2.80342558
H  0.64617837  1.36658756 -3.26252792
H  2.22703345 -1.18172298 -3.81170886
H  2.20651383  0.24018558 -4.82852949
H  0.70776744 -2.85524173 -4.36761107
H  0.68977192 -1.93131253 -2.85372639
H -1.26963322 -3.04561337 -2.76270104
H -1.64828198 -3.05112727 -4.53620832
H -1.30428568  0.40523642 -4.22538987
H -2.20963472 -0.64075981 -5.42195585
H -4.37374537 -0.21205136 -4.47969472
H -3.63655139  0.91860003 -3.21300499
H -5.14764649  1.05774814 -6.43971345
H -3.5119945   0.28681722 -6.86464882
H -3.88230054  2.08627486 -7.07658245
