53

O -1.72803678  2.58108818  4.94611172
S -0.40025     1.85337693  4.82211757
O 0.75458455 2.72908494 4.6131319 
N -0.42512813  0.70458296  3.65585168
S -1.72973848  0.24255004  2.93482496
O -1.30895436 -0.74068591  1.92485636
O -2.74126117 -0.01600213  4.03822889
C -2.60381882  1.86010164  2.04624197
F -3.13297607  1.46821479  0.92117352
F -1.46907677  2.59179358  1.65812319
F -3.60242567  2.45386548  2.74037739
C -0.37001528  0.73117234  6.34478657
F 0.37438601 1.20943349 7.39964371
F -1.67232846  0.49020882  6.7333365 
F  0.04648251 -0.50680511  6.0713756 
Li -3.143103    1.42445624  5.26853902
C  4.44243955 -0.05219192  0.23906358
O 3.41156534 0.86591971 0.16229318
C 2.11977864 0.2010075  0.36489951
C 0.83943135 1.0398359  0.06305845
O  0.7047172   1.35862849 -1.3508717 
C -0.63968099  1.66811092 -1.6337151 
C -0.88269267  2.04949478 -3.11201565
O -1.09749671  0.90926014 -3.91797385
C  0.02291295  0.40612609 -4.63722343
C -0.23606537 -1.02975761 -5.15046542
O -0.80492558 -1.9329149  -4.2335647 
C  0.09148404 -2.52421819 -3.32576321
C -0.60752175 -2.61745674 -2.01114807
O  0.10765096 -3.67990537 -1.30608935
C  0.10135252 -3.54685284  0.13040115
H  4.52110073 -0.45132266  1.34729994
H  4.26489004 -0.95166356 -0.49967738
H  5.38370957  0.4190588  -0.09953574
H  2.02196321 -0.04542125  1.47117358
H  2.05398538 -0.76127484 -0.14792858
H 0.80719694 1.97943996 0.6266455 
H -0.08847028  0.4994192   0.32636141
H -0.98025648  2.57903107 -1.06364736
H -1.36773567  0.83589587 -1.4125985 
H  0.02346104  2.69148016 -3.49206452
H -1.83754299  2.63494287 -3.14844542
H  0.2039162  0.9744588 -5.5846446
H  0.95716164  0.29570892 -3.99771066
H  0.72572136 -1.40463085 -5.60643023
H -0.92785053 -0.97789276 -6.0026779 
H  0.54910348 -3.49070035 -3.65642114
H  0.9790341  -1.88852065 -3.16750046
H -0.58665806 -1.7166272  -1.42285132
H -1.65974729 -2.88007355 -2.20634811
H  0.97365027 -2.87447225  0.43435988
H  0.3762849  -4.54130587  0.34755575
H -0.81420713 -3.1170521   0.55547992
