37

C  3.11482865 -2.52733397 -0.28334693
O  2.82170105 -1.42368928 -1.12472935
C  1.63127857 -0.78369161 -0.92755835
C  1.71835204  0.52896316 -1.72442513
O  1.00491807  1.58510618 -1.16164831
C -0.20518781  1.82146698 -1.69523108
C -0.88333041  2.98415022 -1.09884642
O -1.57898289  2.66549098  0.0892539 
C -0.63947125  2.73806897  1.22831791
C -1.01395698  1.90230689  2.39010863
O -0.77611606  0.50105885  2.13575028
C -1.74117683 -0.11297465  1.24950762
C -1.36678212 -1.56655793  1.28883831
O -1.99530941 -2.37036071  0.32766926
C -1.22067578 -3.42605215 -0.22427485
H  4.22838001 -2.66856163 -0.28085403
H  2.63100335 -3.3905914  -0.75579483
H  2.71571082 -2.31447664  0.7634942 
H  0.74789177 -1.43418686 -1.20366463
H  1.40546928 -0.44414472  0.17673727
H  2.75225385  0.87625767 -1.67321607
H  1.42191773  0.30872111 -2.77163107
H -0.07050841  2.01537501 -2.80109497
H -1.00893647  1.00658643 -1.67416925
H -0.11945558  3.82340008 -0.91820007
H -1.64276967  3.36266134 -1.87512752
H -0.5992683   3.81406436  1.5919273 
H 0.3382711  2.42590173 0.92949654
H -0.37425184  2.24947799  3.22197686
H -2.09667755  2.05295007  2.65552863
H -1.68888557  0.25247611  0.15528458
H -2.79636299  0.05024961  1.65024207
H -1.46583539 -1.96979029  2.32326371
H -0.25419734 -1.41466513  1.13418636
H -1.57411811 -3.63870545 -1.28397785
H -0.14067732 -3.12931454 -0.25201861
H -1.2790422  -4.3496368   0.41822589
