37

C  6.83865367 -2.44521166  0.25158987
O  5.91460422 -2.09029177 -0.79962191
C  4.60232473 -2.29461073 -0.33314297
C  3.62189816 -1.58768672 -1.34149245
O  2.2677133  -1.84030815 -0.97769576
C  1.78013361 -0.85563167 -0.05368183
C  0.34549807 -1.1622567   0.25024734
O -0.24277774 -0.04760664  0.879348  
C -1.62733913 -0.28675494  1.14758822
C -2.30605443  0.99318793  1.12731405
O -3.71455964  0.75664802  1.46326946
C -4.45250182  2.00123351  1.48291894
C -5.01760048  2.39180075  0.0925922 
O -4.09075648  3.13356617 -0.69359973
C -4.3455672   3.20362962 -2.04435565
H  6.86075047 -3.50112095  0.46728707
H  6.69942295 -1.91436037  1.18914453
H  7.82059474 -2.12623795 -0.088542  
H  4.33927623 -1.9708273   0.67393153
H  4.39945328 -3.39753348 -0.42888183
H  3.91822199 -0.50976937 -1.35539745
H  3.7471533  -2.04291566 -2.38841743
H  2.4382126  -0.83646433  0.82368331
H  1.7146746   0.13867794 -0.519978  
H -0.19506544 -1.36792003 -0.69762557
H  0.3398413  -2.11264949  0.86325935
H -2.10501791 -1.06723238  0.41998083
H -1.68569856 -0.83397809  2.13976617
H -2.30939597  1.44683619  0.09321852
H -1.81095605  1.73564466  1.78693119
H -3.76555895  2.85488797  1.86998475
H -5.27901702  1.92386673  2.27071034
H -6.0835535   2.8523047   0.23699507
H -5.18568834  1.35992787 -0.37882047
H -4.8658386   2.20161356 -2.32106038
H -3.51376617  3.2662015  -2.72010542
H -5.05171378  4.03134128 -2.38734187
