37

C  6.38820123 -0.07749988  1.04953168
O  5.57492473 -0.63059586  0.04118537
C  4.22162532 -0.13539821 -0.03558513
C  3.41463283 -1.14636094 -0.9171714 
O  2.04929436 -0.71582464 -0.86316036
C  1.14192283 -1.47131278 -1.66685759
C -0.30740057 -1.09512756 -1.35425015
O -1.12764599 -1.8911856  -2.19288203
C -2.46425428 -1.92435353 -1.77168261
C -3.14592246 -0.47728923 -1.54411399
O -2.99054372 -0.0780876  -0.18781872
C -3.50191194  1.18978103  0.13354455
C -2.98279203  1.51098739  1.54185192
O -3.62910242  2.72655745  1.99942593
C -3.51111916  2.92013228  3.40156336
H  7.39868963 -0.47930955  0.85355199
H 6.56177729 1.0099876  0.91436244
H  5.91512068 -0.36235174  1.99551568
H  4.12153822  0.80777103 -0.64501762
H 3.61809612 0.01275173 0.91275493
H  3.59794121 -2.2400838  -0.51189266
H  3.82212701 -1.19406461 -2.05125233
H  1.29823731 -2.56059321 -1.5371616 
H  1.27553268 -1.3366303  -2.74017463
H -0.47707149  0.00569286 -1.43362925
H -0.49524472 -1.3347008  -0.30391526
H -2.99475474 -2.29281642 -2.72172746
H -2.62263289 -2.6246963  -0.93057791
H -2.55798253  0.21516441 -2.22054527
H -4.14519403 -0.62029174 -1.92102911
H -4.61041839  1.24987921  0.21350649
H -3.15763208  1.86199097 -0.62233698
H -3.22922216  0.64947256  2.26298321
H -1.85884579  1.55584213  1.51690081
H -4.60270618  2.96887152  3.80017494
H -2.97436396  2.10261454  3.97139521
H -3.01289992  3.9010776   3.56453354
