37

C  3.133184   -1.70647818  2.01526001
O  3.22649823 -0.93025951  0.85114615
C 2.11100683 0.0531851  0.79015872
C  2.03233388  0.4180261  -0.70013576
O  1.11296966  1.49488129 -0.78161904
C  0.46504936  1.58948446 -2.01348058
C -0.66394725  2.66153039 -1.81104364
O -1.65942586  2.33070394 -0.88779749
C -1.35914766  2.27963174  0.55992199
C -2.43603922  1.49182399  1.22284827
O -2.25843249  0.10003559  1.32005462
C -2.44662831 -0.6067197   0.10022983
C -1.80591883 -1.94967251  0.19345561
O -0.39456348 -1.77609701  0.20520043
C  0.18212731 -2.80882787 -0.61323358
H  3.71281305 -2.63919118  1.93530788
H  2.05097042 -1.94977193  2.17903853
H  3.47183539 -1.23187638  2.96795235
H  1.16590055 -0.40794129  1.03090351
H 2.33044035 0.88699976 1.44128286
H  3.03127966  0.67499453 -1.10162213
H  1.67212471 -0.46995731 -1.19930661
H  1.24051816  1.86030788 -2.79124459
H  0.04461331  0.59824099 -2.35564228
H -0.14732267  3.64372418 -1.59603847
H -1.20794086  2.84335049 -2.75312937
H -1.41499185  3.32261536  0.95531806
H -0.32712395  1.87032208  0.80724755
H -2.58547501  1.83374906  2.25191455
H -3.39793977  1.69990066  0.70708843
H -2.00088742 -0.05579659 -0.73472961
H -3.57627323 -0.81080691 -0.10855008
H -2.19499334 -2.47744506 -0.73361581
H -2.12378397 -2.516932    1.07880533
H  1.29030273 -2.71745347 -0.51573659
H -0.22986401 -3.80669789 -0.21566271
H -0.0432684  -2.7915828  -1.70054633
