37

C  5.3513474   1.4477672  -1.52188443
O  4.51790008  0.59273731 -2.28371433
C  3.6524123  -0.20321269 -1.50449001
C  2.73286838 -0.93983238 -2.50856495
O  1.89236581 -1.9011686  -1.85931128
C  0.81675605 -1.35777198 -1.0517551 
C  1.13560892 -1.62010856  0.44911253
O -0.01726779 -1.50091743  1.20221846
C -0.23869494 -0.19467216  1.64680742
C -1.57947592 -0.32496212  2.43918944
O -2.22324507  0.88151776  2.78016273
C -2.7835292   1.65300887  1.7165137 
C -4.1527568   1.11878321  1.40514315
O -4.14124039 -0.16723673  0.72266377
C -4.96609457 -0.16100402 -0.40628697
H  5.95263411  0.80239383 -0.88181655
H  4.61948593  2.13467099 -0.92644096
H  5.96086082  2.01070243 -2.25918317
H  3.04968983  0.47113097 -0.82316697
H  4.33857028 -0.77258022 -0.84118776
H  2.09852297 -0.14633265 -3.06365323
H  3.39565383 -1.53974525 -3.19955582
H  0.68940599 -0.29459579 -1.28791083
H -0.07098364 -1.9066763  -1.26857048
H  1.42378704 -2.67504822  0.50025807
H  1.95469527 -0.929373    0.8038175 
H 0.48128309 0.14282902 2.37411248
H -0.28902231  0.50871687  0.75481582
H -1.45137115 -0.87465289  3.37014618
H -2.19534065 -0.93417449  1.72111543
H -2.14677419  1.64681637  0.79794305
H -2.84962631  2.66112258  2.14200978
H -4.72003299  1.85958141  0.74644798
H -4.75726671  1.03548766  2.33047632
H -5.99249464 -0.40352442 -0.13117864
H -4.54213701 -0.91176102 -1.17605792
H -4.94649383  0.79208444 -0.90822445
