37

C -0.01230219 -1.45337367 -3.45365761
O -1.04299536 -1.68500157 -2.56316241
C -1.06955871 -0.76197098 -1.45369058
C -2.17188601 -1.2706239  -0.48047047
O -2.57695928 -0.22108899  0.36960024
C -2.1346392  -0.19805667  1.68070523
C -1.94370085  1.2792725   2.15891333
O -0.63224886  1.84573831  1.7221439 
C -0.76168499  2.47839711  0.45885586
C  0.67345557  2.58228782 -0.10370224
O  1.25709817  1.26379227 -0.23349958
C 1.78841728 0.80383904 0.95582167
C  3.03455025 -0.13685853  0.66831751
O  2.72363931 -1.17470566 -0.26376207
C  1.97667745 -2.24018893  0.32820677
H -0.15920694 -2.25049312 -4.1789848 
H  1.01447311 -1.47689673 -2.93452846
H -0.12613921 -0.45511352 -3.95605104
H -0.01935465 -0.61516399 -1.02375582
H -1.35826915  0.23539443 -1.81380215
H -3.05131522 -1.54489757 -1.06257771
H -1.90528538 -2.21784925  0.0833266 
H -2.8706451  -0.68960379  2.36608996
H -1.14735547 -0.73985549  1.86977091
H -2.78374127  1.85131535  1.69915285
H -1.91478015  1.27927213  3.28966119
H -1.28065761  3.44669608  0.49380394
H -1.32194806  1.85815419 -0.29725753
H  0.6012667   2.99452611 -1.1925764 
H 1.32702733 3.23631644 0.50804365
H 1.06905211 0.16386716 1.50410177
H 2.11245239 1.63200956 1.61219595
H  3.3831758  -0.52657197  1.63660483
H 3.88414226 0.40120957 0.3066339 
H  1.52033463 -2.77612005 -0.54990636
H  2.68718247 -2.97854886  0.81015195
H  1.23172883 -1.93910485  1.03928321
