37

C 5.38500054 2.69401666 0.42833675
O  4.90663026  1.76780676 -0.44039085
C 4.10212546 0.73972997 0.10283334
C  4.04322463 -0.41494288 -0.90977709
O  3.16951743 -1.45809033 -0.38966156
C  1.96965846 -1.57857488 -1.16618714
C  1.03959347 -2.36819343 -0.30410896
O -0.28932995 -2.1007228  -0.69535748
C -1.28430297 -2.22014153  0.26697896
C -2.52130513 -1.35858461 -0.1640329 
O -3.55802578 -1.36792486  0.79121167
C -3.77092307 -0.20894746  1.54390722
C -4.56569524  0.96669818  1.02281581
O -3.84444723  1.72090274  0.0649061 
C -4.68316163  2.21165109 -0.93812795
H 6.01535675 2.25429091 1.23510363
H 4.53088837 3.17014948 1.01383185
H  6.04950803  3.38556172 -0.13350849
H 3.08376531 1.09709894 0.31752629
H 4.57152795 0.39874496 1.01815277
H  3.76726096 -0.03742472 -1.91779207
H  5.05003714 -0.82691435 -1.01704447
H  1.48050212 -0.57148501 -1.29831232
H  2.15553162 -2.05977297 -2.15332366
H  1.38736383 -3.45121218 -0.2790764 
H  1.22958405 -1.99418754  0.7356534 
H -1.55696949 -3.27835575  0.39710616
H -0.88286864 -1.90622651  1.23233559
H -2.9582249  -1.77847856 -1.13563611
H -2.09217201 -0.36051004 -0.31582943
H -2.75403977  0.17510468  1.79256956
H -4.25686532 -0.56002604  2.47641996
H -4.81502581  1.53423001  1.936544  
H -5.52527431  0.64927689  0.54977266
H -5.10806498  1.39426354 -1.50925406
H -3.98163641  2.83657765 -1.58719317
H -5.48874375  2.90461228 -0.57139162
