37

C  2.15261137 -2.42081127 -1.80141011
O  1.97175095 -1.08510952 -2.34950019
C  1.47062765 -0.11952592 -1.44348645
C  1.77399046  1.23643481 -1.99050478
O  1.05042423  2.26797844 -1.33300132
C -0.22344463  2.37993341 -1.83633499
C -1.114538    3.03635777 -0.80454562
O -1.31918097  2.28264049  0.39233949
C -0.39570764  2.46197743  1.52512871
C -0.70431547  1.41036049  2.592146  
O -0.09990698  0.17191042  2.39352524
C -0.81957761 -0.73128328  1.58893844
C -0.14879374 -2.15158486  1.64685749
O -0.56222026 -2.9705014   0.61395077
C -1.84632752 -3.52909844  0.78241626
H  2.31420631 -3.11301454 -2.64462417
H  1.23247927 -2.79908963 -1.33681808
H  3.06696203 -2.45489447 -1.1305249 
H  0.36458315 -0.32810996 -1.29932306
H  1.87248225 -0.24220798 -0.42962302
H  2.85564714  1.50201624 -1.81135957
H  1.56789752  1.20797245 -3.05909129
H -0.31199173  3.07519276 -2.72452039
H -0.70294709  1.40357344 -2.10862769
H -0.71672596  4.06568644 -0.53274866
H -2.07966064  3.17439639 -1.28958267
H -0.48609323  3.49453635  2.0229947 
H 0.62590665 2.35994535 1.12648583
H -0.24991525  1.8283328   3.53126797
H -1.79999374  1.3680438   2.67369728
H -0.87101035 -0.34066798  0.57338133
H -1.9872369  -0.67533704  1.81985301
H -0.31323162 -2.49383834  2.62111739
H  0.96476838 -1.99334925  1.5545678 
H -1.93246052 -4.25454734 -0.03278325
H -1.85589003 -4.10773793  1.67328782
H -2.74316747 -2.91658012  0.82645471
