37

C 7.53076747 0.69591974 0.4841988 
O 6.60984718 1.62673614 0.12164066
C 5.32341544 1.37664806 0.56721314
C 4.2132093  2.40661655 0.12854813
O 3.08479494 2.01528572 0.80814872
C 1.83724792 2.09839414 0.14210431
C 0.89098205 1.04665942 0.59450098
O -0.30704301  1.27036715 -0.17481901
C -1.22788449  0.24847128  0.1177899 
C -2.59197889  0.46707771 -0.54808107
O -3.22681588 -0.81300967 -0.3505473 
C -4.37626579 -1.04275833 -1.06770684
C -4.9376486  -2.44549366 -0.63021182
O -6.35159787 -2.49700318 -0.71226108
C -6.81890469 -3.61477231  0.02538938
H  7.09934413 -0.3040544   0.54939459
H  8.34576623  0.667208   -0.25317665
H 7.92157669 0.81321181 1.5373819 
H 4.95902933 0.40894184 0.13856844
H 5.30234044 1.34422981 1.65665923
H  4.03821815  2.26714706 -1.00710133
H 4.49119208 3.47939268 0.36836406
H  2.07604283  1.94869207 -0.95694781
H 1.33530445 3.1109215  0.22169519
H 1.29949504 0.05678713 0.32062671
H 0.80253367 1.117126   1.70590014
H -1.32962003  0.13344588  1.21107587
H -0.88671566 -0.76835702 -0.22452606
H -2.50679077  0.69860497 -1.67955421
H -3.27828783  1.28765479 -0.10821277
H -4.11065935 -1.01839122 -2.10522187
H -5.17920721 -0.26880224 -0.8969876 
H -4.36786773 -3.26493649 -1.16262128
H -4.59658875 -2.56009325  0.47194391
H -7.90229027 -3.7903788  -0.13323961
H -6.75399315 -3.51015351  1.13372813
H -6.41094735 -4.68733539 -0.29365586
