37

C -3.84313235  3.32683012 -0.13875905
O -4.35004035  3.00129641  1.14198848
C -4.90176737  1.71082143  1.33700297
C -3.90807664  0.5921288   1.62066928
O -3.33111569  0.22604233  0.35068979
C -2.40942777 -0.78811669  0.38946809
C -1.03198343 -0.4741896   1.03848121
O -0.4682624   0.66592325  0.43670206
C 0.93471562 0.80694269 0.7540087 
C  1.8306748   0.12997347 -0.2362986 
O  1.78457425 -1.30201167 -0.14707733
C  2.48340399 -1.9754207  -1.15393364
C  3.97945289 -1.67005835 -0.98778782
O  4.75765956 -2.34227908 -1.92637659
C  6.07483332 -1.92261038 -2.06246338
H -3.54646024  4.34775225 -0.16406883
H -4.55194191  3.04361268 -0.9791728 
H -2.90397095  2.82003743 -0.36644788
H -5.59239127  1.68396173  2.22353935
H -5.45451031  1.37512236  0.47326162
H -4.4606385  -0.28668715  2.02463693
H -3.12551677  0.8482928   2.45964137
H -2.7522274  -1.67872945  1.02473937
H -2.28326383 -1.14835893 -0.65184743
H -1.12091582 -0.39048854  2.152508  
H -0.3818027  -1.36618278  0.883944  
H 1.07304057 0.44246017 1.81698577
H 1.1379359  1.90047236 0.70422942
H  1.49155375  0.37387667 -1.26254969
H  2.83839952  0.55015347 -0.0735465 
H  2.23749342 -3.08029255 -1.05610562
H  2.16058916 -1.55942336 -2.18885302
H  4.26613098 -1.88978698  0.08463257
H  4.17361669 -0.55987504 -1.05645497
H  6.12139379 -0.8483761  -1.77193118
H  6.80795883 -2.60000107 -1.53460937
H  6.26401867 -1.96281199 -3.1588453 
