37

C -1.73537202 -3.69699533  3.05007168
O -3.06611816 -3.47074045  2.49932935
C -3.25187223 -2.48902959  1.52302898
C -2.47230544 -2.784426    0.23061624
O -1.04882205 -2.64565321  0.34361287
C -0.55456874 -1.32329618  0.5794032 
C  0.9338508  -1.36940193  0.22030092
O  1.38295553 -0.05662499  0.11821713
C 2.77953664 0.08665817 0.00866449
C 3.26195333 1.51527092 0.26583369
O  2.93143989  2.40449609 -0.81287917
C  1.69757955  3.1915044  -0.68876876
C  1.04665709  3.18902547 -2.06646754
O -0.33117267  3.58746726 -1.89602548
C -1.04320273  3.76041756 -3.1120667 
H -1.83974672 -3.54720938  4.1602034 
H -1.02425308 -2.99271173  2.48180547
H -1.43981531 -4.8054351   2.82657168
H -4.34442045 -2.43410612  1.34105295
H -2.98022172 -1.43062518  1.92224342
H -2.87713308 -2.218106   -0.66325766
H -2.64527271 -3.93624173  0.05965888
H -1.00725019 -0.6492669  -0.1142632 
H -0.63395946 -1.05273041  1.66737626
H  1.46760028 -1.89539978  1.06174179
H  1.12020798 -1.9251963  -0.7205944 
H  3.17412053 -0.40056793 -0.92219189
H  3.14929094 -0.55444759  0.87513773
H 2.7879986  1.90771269 1.2137204 
H 4.36104881 1.59821444 0.38989545
H 0.99159761 2.79539843 0.01619604
H  1.89828798  4.23621356 -0.32587776
H  1.14628792  2.15748792 -2.45928412
H  1.59726202  3.82705939 -2.75266817
H -2.06645386  3.89777756 -2.90226864
H -0.6188487   4.65609138 -3.64870379
H -0.74686621  2.86741658 -3.76936473
