37

C -2.11155193 -4.6802711  -2.43644168
O -2.90252359 -3.47979867 -2.45982139
C -2.44934949 -2.52416994 -1.5195131 
C -3.11712179 -1.17806852 -1.78563385
O -2.5755473  -0.25983812 -0.84540533
C -2.83959082  1.13761268 -1.05563345
C -2.08031977  1.83007707  0.04481008
O -0.67591183  2.04871193 -0.21720434
C  0.17337701  0.90344296 -0.32987248
C 1.58712225 1.33497166 0.07041642
O 2.40451263 0.15753268 0.2129663 
C 2.96488554 0.05428064 1.51730489
C 4.06422134 0.99921595 1.77428503
O 3.75429819 2.38049203 1.97584115
C 3.30731229 2.80498468 3.23216261
H -2.49320856 -5.5116688  -3.02449314
H -0.95858873 -4.57722674 -2.68804256
H -1.983718   -5.08985135 -1.34711594
H -1.31650452 -2.50761257 -1.37219428
H -2.73905199 -2.88966311 -0.49350286
H -4.19572584 -1.28750651 -1.7274206 
H -2.81240723 -0.88610952 -2.78598578
H -3.91917941  1.37379801 -1.146155  
H -2.42985785  1.53231619 -2.02304177
H -2.16859617  1.20685169  0.98284588
H -2.40789337  2.88205173  0.17504966
H -0.14537402  0.11904373  0.4087428 
H  0.12254851  0.47689083 -1.32754182
H  1.99917739  1.90906881 -0.75802296
H 1.49808629 1.96698869 0.97150589
H  3.40161584 -0.97638952  1.7056057 
H 2.14092742 0.18609649 2.25918077
H 4.68254542 0.98370004 0.80955379
H 4.70899956 0.63599585 2.61007731
H 2.5730652  2.13321958 3.74383048
H 4.20116283 3.0435179  3.85566885
H 2.73816451 3.74731267 2.99319472
