37

C 2.14853712 5.38087505 0.1468642 
O  3.09605661  5.32074013 -0.94715085
C  2.54213084  5.21491877 -2.24336561
C  2.26797721  3.70393326 -2.57921555
O  1.21766455  3.22939541 -1.71854962
C  1.4069886   1.91281511 -1.36694965
C  0.09361054  1.12211907 -1.40257265
O  0.35914576 -0.14908072 -0.84261508
C -0.7390683  -0.97678694 -0.64978196
C -0.2561919  -2.23957625 -0.02607359
O -1.41534189 -2.87890609  0.49823632
C -1.07981955 -3.75972019  1.58669082
C -2.42664875 -4.22631922  2.21997766
O -2.26565962 -5.40104194  2.900757  
C -3.47181441 -5.93846118  3.36736601
H 1.48797018 4.49451082 0.1149427 
H 1.44867923 6.23576208 0.08958928
H 2.80120167 5.43193004 1.08852341
H  3.27187513  5.63196699 -3.03824317
H  1.58463316  5.78871477 -2.33320934
H  1.98527493  3.55130036 -3.64422833
H  3.17696824  3.17327089 -2.41220985
H  2.12975003  1.39332726 -2.09720421
H  1.8835483   1.73840054 -0.33765634
H -0.64847783  1.69961232 -0.8455147 
H -0.26406948  0.99954582 -2.47253128
H -1.36113904 -1.02724971 -1.5318853 
H -1.39735289 -0.48098371  0.11274293
H  0.43259045 -1.89296175  0.78816166
H  0.32327649 -2.89726618 -0.72721899
H -0.42418278 -3.27889447  2.34595716
H -0.5260395  -4.72791414  1.27850369
H -3.09495386 -4.46929522  1.34583695
H -2.87111736 -3.36771238  2.75579142
H -3.97647672 -5.36149516  4.18226312
H -4.27007988 -6.06060478  2.54540669
H -3.16944524 -6.88886866  3.84856506
