37

C -5.19468276  2.14841713 -1.18765945
O -3.86949955  2.72231582 -1.07633674
C -3.76097144  3.70134456 -0.05519989
C -2.37805397  4.24732034  0.02487523
O -1.48478545  3.43004095  0.67852273
C -1.15453832  2.28122883 -0.08240228
C 0.01612936 1.53055112 0.60431441
O  0.46453521  0.50904856 -0.25219498
C 1.79726347 0.04077034 0.06528279
C  2.03171453 -1.29482602 -0.49523155
O  3.41793142 -1.52908177 -0.41759925
C  3.76171493 -2.84776061 -0.8644018 
C  3.62199122 -3.92174964  0.19115168
O  2.2349277  -4.23482248  0.39940185
C  2.05211017 -5.00056422  1.57690557
H -5.95981472  2.98640777 -1.3745855 
H -5.47334005  1.47969272 -0.30623535
H -5.21850324  1.4769719  -2.10758919
H -3.99817039  3.21017151  0.90423136
H -4.33181652  4.60731021 -0.32009605
H -2.4356319   5.22664555  0.58838291
H -1.97004372  4.47733805 -0.94538694
H -0.86694217  2.47323861 -1.11804854
H -2.02751459  1.63014433 -0.1260347 
H -0.28708641  1.05668053  1.58644505
H 0.86209136 2.28613159 0.77229034
H  2.5983972   0.75788143 -0.28664194
H 1.99605982e+00 1.55342735e-03 1.17330360e+00
H  1.69346616 -1.47466378 -1.5626268 
H  1.44183379 -2.02004444  0.08123911
H  3.22809162 -3.09600118 -1.82270048
H  4.82967336 -2.86447611 -1.03265077
H  4.05511124 -3.52026716  1.13731104
H  4.17565131 -4.83920608 -0.1897375 
H  2.20460555 -4.35441225  2.50686508
H  2.84780186 -5.80937031  1.83074087
H  1.0802939  -5.47395921  1.50209608
