37

C 2.12306312 1.30137939 3.72000029
O 2.45359006 1.54248076 2.41694019
C 3.78831717 1.18483701 1.92649917
C 3.78977322 0.01210151 0.98444174
O 2.84360466 0.30947984 0.05047891
C  2.33126368 -0.74632913 -0.67118548
C  0.76855879 -0.46874695 -0.84281351
O  0.00275163 -0.53454693  0.33442971
C -0.67659605  0.61051611  0.75098062
C -2.28734949  0.65979254  0.58186498
O -2.70603869  1.25268457 -0.6039203 
C -2.88094342  0.46018102 -1.72667349
C -3.90816034 -0.64893055 -1.63380681
O -4.17182826 -1.27975894 -2.82421806
C -3.04848417 -2.07400877 -3.30172211
H 2.74720347 1.89019125 4.4726719 
H 2.19960497 0.20479655 4.03059267
H 1.02578192 1.49947295 3.76934415
H 4.16053802 2.09054953 1.45331282
H 4.3669262  0.81896877 2.8664254 
H  4.90683898 -0.02813328  0.58107904
H  3.55358753 -0.97670876  1.41457499
H  2.7910911  -0.80445349 -1.72873022
H  2.53312014 -1.66947451 -0.11642129
H  0.50380936 -1.21001436 -1.66748451
H  0.77127692  0.4788448  -1.36543167
H -0.23140224  1.46984041  0.14093434
H -0.43513198  0.72974191  1.83442083
H -2.69122263 -0.32612809  0.7513445 
H -2.614464    1.44503259  1.38073376
H -1.84767127  0.10057752 -2.10125345
H -3.3279301   1.10523147 -2.54812971
H -4.84358613 -0.21233409 -1.27148162
H -3.71182564 -1.42230092 -0.8173469 
H -2.24708614 -1.36440009 -3.73240136
H -2.62433136 -2.67028305 -2.44685852
H -3.40664902 -2.73014856 -4.061191  
