37

C -1.77940175  6.18440044 -1.68979612
O -2.38268007  4.89685598 -2.07365736
C -1.54755392  3.77450499 -1.85843656
C -0.10630327  3.99418974 -1.29047138
O  0.50514194  2.7806768  -1.21018935
C 1.14651592 2.44266353 0.01591106
C  1.68763614  1.06175696 -0.25051063
O 1.98564779 0.18467297 0.81259768
C  0.85788067 -0.48237754  1.40449872
C  1.32038939 -1.96828925  1.46414838
O  0.19539382 -2.59461692  2.03199434
C -0.5212813  -3.60972768  1.27354657
C  0.20391128 -4.98956529  1.57256948
O -0.61958203 -6.04293591  1.24488297
C -0.67747781 -6.44146651 -0.09811563
H -0.86623548  6.44262058 -2.26760594
H -1.5282651   6.2006482  -0.54093329
H -2.62427013  6.85702454 -1.94040734
H -1.39789495  3.23037705 -2.85731748
H -2.03143603  3.10557707 -1.14464707
H  0.46636711  4.76817505 -1.82829587
H -0.1569505   4.56077831 -0.33584204
H 1.87287431 3.19234441 0.33091818
H 0.43154589 2.52182608 0.86543   
H  0.91760684  0.51594081 -0.94415267
H  2.65650303  1.16451117 -0.79132103
H  0.69872743 -0.12807437  2.50081352
H -0.08995059 -0.35013486  0.78709503
H  2.18129842 -2.01106352  2.08407956
H  1.6384463  -2.39455211  0.46103614
H -0.68388294 -3.34777172  0.2000191 
H -1.50999296 -3.70565913  1.685647  
H  0.39400746 -5.05689297  2.64144262
H  1.2694569  -5.06192075  1.07842146
H -0.89383325 -5.59136319 -0.80780141
H -1.38780108 -7.28598839 -0.11490887
H  0.37544247 -6.81714454 -0.41064178
