37

C  2.45508687 -2.66949573 -0.64181155
O  2.84660605 -1.36830149 -1.11314195
C  1.98601662 -0.42200942 -0.5942091 
C  2.48542561  0.88081052 -1.19684797
O  1.62817995  1.95298109 -0.86206756
C  0.36045348  2.16821932 -1.56909692
C -0.70557255  3.02218272 -0.84493614
O -1.38557596  2.30662705  0.24602192
C -0.49742337  2.3773358   1.37598197
C -1.16857967  1.43206285  2.39860947
O -0.77619754  0.10242776  2.19018478
C -1.45208416 -0.44608611  1.06623009
C -1.01964173 -1.96424877  1.10178252
O -1.10081298 -2.60943306 -0.19525661
C -2.42264586 -2.86976848 -0.63284323
H  2.97591669 -3.3933427  -1.27082097
H  1.3610015  -2.80046404 -0.76742847
H  2.7960163 -2.8621703  0.4363656
H  0.90475837 -0.61075335 -0.61427448
H  2.23543621 -0.31804345  0.456662  
H  3.59832672  0.89698283 -1.07429627
H  2.34146323  0.69533067 -2.28696946
H  0.63549659  2.79739745 -2.44606422
H -0.05370858  1.23538228 -1.9826807 
H -0.1934711   3.92480758 -0.47085993
H -1.42751016  3.34421724 -1.60250002
H -0.45577213  3.43684292  1.7735481 
H 0.54358784 2.07004292 1.1831411 
H -0.88914407  1.73363234  3.43021092
H -2.28251332  1.5336477   2.32506779
H -1.17045915 -0.00527503  0.05061355
H -2.49186442 -0.1929811   1.13160042
H -1.45340086 -2.59684756  1.88945944
H  0.0723759  -1.92042323  1.35620776
H -2.36206617 -3.56916022 -1.49202313
H -2.97927173 -3.36380333  0.17591527
H -2.93843243 -1.92832367 -0.92947404
