37

C -5.80539318  0.95416266 -0.59307713
O -6.16734601 -0.32203057 -0.11058529
C -5.90045373 -0.50025737  1.3047939 
C -4.37516644 -0.85479416  1.44827449
O -3.61862935  0.36071443  1.2238827 
C -2.21216229  0.20604004  1.47929146
C -1.53203313  0.00316032  0.13529239
O -0.22831592 -0.52651826  0.35462457
C  0.67112336 -0.34280013 -0.73408057
C  2.07351713 -0.6293767  -0.21859195
O  2.95409363 -0.76254799 -1.32887068
C  4.31742314 -1.00996335 -1.0553638 
C  4.98949185  0.28369101 -0.73012542
O  6.40035148  0.00668081 -0.7972753 
C  7.27891954  1.06609098 -0.69470522
H -4.7277641   1.18662676 -0.62087592
H -6.22600482  1.79732214 -0.03057182
H -6.1625662   1.12925615 -1.59760314
H -6.52287089 -1.26416097  1.79699197
H -6.20915463  0.47912532  1.76334084
H -4.23578656 -1.38485342  2.36168444
H -4.18791606 -1.63236437  0.64545346
H -1.94787729  1.14931158  1.94344667
H -2.01203799 -0.58015315  2.17921871
H -2.03804379 -0.6233269  -0.54804327
H -1.50635394  0.92649731 -0.37674311
H  0.59674881  0.71657645 -1.2654074 
H  0.54198279 -1.08328667 -1.53358177
H  2.16366827 -1.64992996  0.45319857
H 2.46910416 0.25606975 0.49879168
H  4.7232324  -1.40637907 -1.98140826
H  4.40265505 -1.68585568 -0.23861593
H 4.79717351 0.5975946  0.31086174
H  4.75485666  1.12504058 -1.38910835
H  7.09092139  1.79321346 -1.52214522
H 7.11966777 1.64214741 0.2225063 
H  8.2709454   0.57927693 -0.75487438
