37

C  2.73525108 -2.58067411 -0.36569201
O  2.95467622 -1.28518652 -0.95054232
C  2.1548104  -0.25204097 -0.52218876
C  2.47603799  1.01267384 -1.16837256
O  1.40592577  1.9604186  -0.77744104
C  0.19827476  1.97871077 -1.57187919
C -0.89459033  2.83491238 -0.89529401
O -1.4295251   2.25627324  0.35279403
C -0.56902384  2.30983661  1.41934131
C -1.09095343  1.37602795  2.55802651
O -0.73587427  0.02043648  2.30224776
C -1.35698357 -0.45603163  1.09838545
C -1.08434054 -2.07419832  0.91577087
O -1.11045595 -2.64411982 -0.3813031 
C -2.35719212 -2.72256588 -1.03808349
H  2.88227414 -3.36350853 -1.11351261
H  1.66226634 -2.58187289  0.00486295
H  3.39247653 -2.74575769  0.52440946
H  1.05737198 -0.40562881 -0.80026898
H  2.26802453 -0.10087494  0.5862473 
H  3.52134956  1.40892097 -1.01826383
H  2.38804221  0.76118842 -2.20942558
H  0.44357475  2.38400225 -2.60926629
H -0.22246114  0.9314376  -1.77620321
H -0.4723832   3.8534934  -0.74224484
H -1.74459073  2.95262154 -1.61236773
H -0.51019527  3.38336621  1.82755984
H 0.46253899 1.99969943 1.20509189
H -0.55837591  1.66566413  3.52871486
H -2.23292624  1.47031723  2.76283351
H -1.06828439  0.12913219  0.2226052 
H -2.45715589 -0.29430357  1.16781665
H -1.82880463 -2.59294296  1.63730318
H -0.02462912 -2.22894854  1.28799256
H -2.24955168 -3.40631714 -1.9630841 
H -3.19958321 -3.26909022 -0.462545  
H -2.80501471 -1.68507068 -1.42402471
