37

C -5.78152254  0.9840656  -0.63304815
O -6.15467885 -0.3158215  -0.1749022 
C -5.84361977 -0.48718433  1.19059956
C -4.40592956 -0.88755651  1.39050295
O -3.64345706  0.37712203  1.2823733 
C -2.31587506  0.21513433  1.49072348
C -1.5169641  -0.02055428  0.18680917
O -0.18209934 -0.42588851  0.40752331
C  0.70206051 -0.40117942 -0.71989856
C  2.13155748 -0.58025497 -0.21352749
O  2.95866239 -0.74387667 -1.32753182
C  4.31473031 -1.00660457 -1.07430617
C  5.00922965  0.32451753 -0.76969301
O  6.31101604  0.01358981 -0.77695412
C  7.23676359  1.13720613 -0.66743031
H -4.68613311  1.10572639 -0.64487731
H -6.22281957  1.6770399   0.08991456
H -6.20847246  1.06866662 -1.64634402
H -6.58564372 -1.22672688  1.54591682
H -5.86826617  0.44157359  1.82530321
H -4.09886062 -1.22261624  2.35001609
H -4.06059308 -1.58037325  0.58323613
H -1.88009834  1.05950522  2.03222494
H -2.11886913 -0.66853965  2.11468004
H -2.09977338 -0.75610124 -0.34060501
H -1.50092625  0.89983907 -0.3686752 
H  0.59457466  0.6461724  -1.17842332
H  0.35764369 -1.12135999 -1.48831454
H  2.05920217 -1.56576873  0.4492921 
H 2.4204617  0.28968191 0.50208549
H  4.74137637 -1.48812509 -1.96121807
H  4.48677709 -1.69966138 -0.24487462
H 4.59563353 0.72942199 0.1832279 
H  4.7056653   1.04485797 -1.56411262
H  7.21734003  1.85622371 -1.51309307
H 7.08677465 1.63439984 0.3004218 
H  8.24513299  0.69344919 -0.61702124
