37

C -5.82419078  0.96969301 -0.58061133
O -6.18407902 -0.31116836 -0.06790595
C -5.9113144  -0.46075419  1.34022608
C -4.39815953 -0.79433372  1.45259737
O -3.6221787   0.32932324  1.19955385
C -2.15255727  0.22019755  1.47090572
C -1.52250578  0.03287775  0.08223333
O -0.25500098 -0.55966886  0.30711713
C  0.65862555 -0.30489831 -0.74866332
C  2.06059538 -0.64316612 -0.21354905
O  2.92364684 -0.75590884 -1.34309611
C  4.28136728 -0.99477052 -1.05395652
C  5.032153    0.29408234 -0.7001704 
O  6.44361183e+00 -3.20504042e-03 -8.17135842e-01
C  7.2947954   1.04403059 -0.72102458
H -4.69150555  1.06065803 -0.5199588 
H -6.27728697  1.8005336   0.05599157
H -6.20928593  0.93700288 -1.64817007
H -6.45956129 -1.37638248  1.69252936
H -6.24458411  0.46046202  1.85341993
H -4.24680932 -1.33885124  2.50400939
H -4.1703514  -1.56404723  0.68280568
H -1.9050564   1.25149535  1.87734291
H -1.92779327 -0.62140156  2.22712918
H -2.16846446 -0.68656826 -0.61563792
H -1.43569219  1.09853229 -0.44128038
H  0.59949515  0.67609856 -1.15685977
H  0.48112216 -1.06342522 -1.57245347
H  2.04882429 -1.49742708  0.37164913
H 2.38541053 0.13683486 0.41773604
H  4.8033784  -1.41458758 -1.969732  
H  4.48220895 -1.81581011 -0.24217808
H 4.78762391 0.58831589 0.36535489
H  4.62787718  1.15844299 -1.33531063
H  7.1156294   1.76079887 -1.56221091
H 7.22235293 1.65941042 0.2421737 
H  8.35765917  0.72758448 -0.83287013
