37

C  5.74703865 -0.51833001 -1.50071209
O  4.5591242   0.16663255 -1.76768608
C  3.43704191 -0.14189721 -0.98247559
C  2.40277482  0.92913169 -1.37251693
O  1.12505097  0.48600647 -0.92786812
C  0.08141882  1.12905565 -1.58215148
C -0.38748934  2.41263956 -0.78332139
O -1.38595633  2.10223699  0.16298828
C -1.02914299  1.71991945  1.54059605
C -2.19636638  1.01041854  2.1939422 
O -2.58399887 -0.2759614   1.83568533
C -3.28932239 -0.52682327  0.65068765
C -3.98048268 -1.89283413  0.91611312
O -3.25310474 -3.04033039  0.46290489
C -1.97695505 -3.27432677  1.01819656
H  6.13259005 -0.31692774 -0.4111316 
H  6.54209808  0.02142434 -2.02885749
H  5.62192184 -1.59795359 -1.77882258
H  3.02245279 -1.19882052 -1.27590295
H  3.58624753 -0.19418857  0.10177768
H  2.7411585   1.90345879 -0.94698298
H  2.41068488  0.93733326 -2.46037511
H  0.39460051  1.36849963 -2.58588019
H -0.76575774  0.44820772 -1.7504507 
H  0.52584644  2.91320154 -0.34887642
H -0.73815143  3.18251723 -1.53288408
H -0.88828182  2.70070771  2.16485113
H -0.0263476   1.12742364  1.50774314
H -2.0223026   0.96980574  3.26700488
H -3.12426056  1.67077483  2.08631913
H -2.65063512 -0.59391275 -0.26141304
H -4.08566652  0.2010055   0.41626062
H -4.99832532 -2.03247734  0.43759367
H -4.17917063 -1.78623954  2.02696923
H -1.8246455  -4.32563228  1.07888543
H -1.1754828  -2.8759484   0.39055074
H -1.76820358 -2.80779692  2.03923915
