37

C 6.16019063 0.37462141 3.03746404
O 5.62816179 0.95690685 1.84331988
C 4.32064099 0.50345525 1.49152833
C 4.31319854 0.05726626 0.07119926
O  3.04474476 -0.46912366 -0.28941078
C  2.88911581 -0.96252627 -1.57006844
C  1.43975815 -1.53200688 -1.69396773
O  0.49985099 -0.50843297 -1.39087949
C -0.78262752 -0.89530999 -0.88150038
C -1.69233827  0.28321603 -0.85174386
O -2.96748588 -0.21170883 -0.47115982
C -4.17533242  0.42060403 -0.84986645
C -5.36683259 -0.17119488  0.02554549
O -6.55532949  0.37103003 -0.38412302
C -7.01384423  1.52214413  0.3013582 
H  6.26691811 -0.74842369  2.91591966
H 7.15165269 0.81521045 3.15883393
H 5.59932963 0.57685842 3.9451733 
H 3.60006817 1.34377139 1.60283151
H  3.93147012 -0.25430006  2.17388471
H  5.18906843 -0.67732314 -0.11233912
H  4.57442197  0.91623063 -0.667143  
H  3.57944433 -1.85805782 -1.73063293
H  3.06986058 -0.2572565  -2.39244569
H  1.28635386 -2.43293167 -1.03644789
H  1.30409719 -1.82274555 -2.77213679
H -1.33203049 -1.6875305  -1.43607997
H -0.69868995 -1.31839958  0.13447869
H -1.21029622  0.98152839 -0.0929013 
H -1.6832      0.78907791 -1.86324827
H -4.37107134  0.26393754 -1.90755241
H -4.17828977  1.51801665 -0.71689395
H -5.16382616 -0.08965735  1.19014548
H -5.36568993 -1.23945896 -0.22388444
H -7.96502749  1.82615313 -0.16303653
H -7.09959109  1.28934525  1.35232213
H -6.2268439   2.32701458  0.25345765
