37

C 4.41388459 3.37472225 0.66433818
O  4.15882058  2.66496193 -0.54682575
C  3.24354623  1.61684073 -0.39503306
C  2.90221308  1.08668536 -1.77380855
O  2.38498511 -0.24288936 -1.53335871
C  1.43404815 -0.57940675 -2.50734178
C -0.04591468 -0.16539682 -2.05564778
O -0.6242898  -0.72658638 -0.91846712
C -0.01486334 -0.71243481  0.35103677
C -0.74409053  0.17186933  1.31589662
O -1.93952716 -0.52096581  1.74731879
C -3.07592635 -0.13793923  1.00650773
C -4.16552698 -1.10187871  1.36031835
O -3.73658649 -2.28060132  0.7424451 
C -3.90407349 -3.51900603  1.49585674
H 3.49834507 3.94240574 0.96626639
H 5.17381955 4.19527942 0.46879593
H 4.78647547 2.65256962 1.45125036
H 3.71179893 0.70030768 0.10775253
H 2.25399643 1.87894173 0.07812215
H  2.18692453  1.80801542 -2.20782114
H  3.74887749  1.00101848 -2.48517003
H  1.58304518 -0.29556332 -3.53391643
H  1.29011408 -1.71574219 -2.45575802
H -0.12314879  0.94466616 -1.912128  
H -0.67650377 -0.54085841 -2.87260913
H  1.09700322 -0.36154052  0.22520192
H -0.11976351 -1.83380293  0.63504105
H -0.15632325  0.39946173  2.25632118
H -0.96713923  1.17796747  0.89670686
H -2.93010225 -0.04543555 -0.12941744
H -3.40889669  0.88228084  1.25007129
H -5.14408626 -0.82118095  0.95285868
H -4.37686769 -1.28441559  2.4202329 
H -3.59060919 -4.32236571  0.79984479
H -3.17452799 -3.5776474   2.40951287
H -4.94913023 -3.71233609  1.72560576
