37

C 1.41552366 3.79433309 1.21144191
O 1.40985878 2.87435216 0.20264909
C  2.35607761  3.08545069 -0.80295845
C  2.18155712  1.98316173 -1.8618188 
O  2.55721015  0.69458121 -1.38057922
C  1.91763786 -0.39602561 -1.99762926
C  0.54733309 -0.66302398 -1.43518194
O  0.58124277 -1.5708574  -0.31323919
C  0.72204047 -0.96884014  0.92844189
C -0.55724701 -0.45353817  1.47654486
O -1.32881823 -1.4346309   2.20215516
C -1.48276858 -2.71296758  1.61177215
C -1.97479466 -2.65449856  0.09437855
O -2.92991636 -1.63641897 -0.28852294
C -4.22123091 -1.78120377  0.32977216
H 2.44956635 4.1489923  1.56334719
H 0.74683621 3.43202673 2.01997655
H 1.03513071 4.84121109 0.95319774
H  2.34081243  4.16255824 -1.18689313
H  3.37914569  2.85762146 -0.38493101
H  1.1534213   2.07613565 -2.33196425
H  2.90380625  2.14749463 -2.76041036
H  1.8361679  -0.26911438 -3.15487398
H  2.49664453 -1.30594986 -1.77429873
H  0.09673696  0.32456907 -1.16096218
H -0.10836309 -1.09245755 -2.17269805
H  1.40881199 -0.12726564  0.90167849
H  1.10863654 -1.79785923  1.59559103
H -0.48505957  0.32903982  2.23770464
H -1.24906822 -0.0091742   0.70813984
H -2.27984119 -3.14424981  2.21052078
H -0.6539271  -3.34039342  1.79566512
H -2.4696092  -3.70876275 -0.06248958
H -1.16657487 -2.43838556 -0.62484346
H -5.12415027 -1.74682339 -0.31288892
H -4.1651266  -2.64393224  1.00125626
H -4.44770253 -0.85515479  0.96295003
