37

C  5.34648612 -1.5738854  -3.64064084
O  5.24868881 -0.46042424 -2.79673125
C  4.48270991 -0.52193625 -1.66021912
C  4.2363624   0.90905552 -1.14724579
O 3.52691316 0.94370791 0.02561561
C  2.12810347  0.8061571  -0.15407568
C  1.53777161 -0.07516336  0.97809717
O  0.15564173 -0.18787705  0.67312901
C -0.42829623 -1.20117574  1.47105168
C -1.9427059  -1.13026196  1.42933416
O -2.2951487   0.18841794  1.89141944
C -3.6571486   0.42695588  2.23539081
C -4.58942949  0.7466299   0.98192066
O -5.7077405   1.33597247  1.5290012 
C -6.66231343  1.750751    0.60374775
H  5.55535362 -1.10024067 -4.65057696
H  6.21178451 -2.13269861 -3.3706676 
H  4.4057972  -2.17950512 -3.67023591
H  5.04059816 -1.06894334 -0.73115401
H  3.53359789 -1.03642137 -1.83504042
H  3.62878878  1.37592523 -1.96690695
H  5.20895174  1.48923192 -1.34600771
H  1.85952121  0.33700813 -1.19360059
H  1.59143716  1.84397057 -0.05091973
H 1.6880861  0.34566641 1.9694264 
H  2.04734783 -1.06133203  0.84756335
H -0.08568136 -2.16283342  1.11890491
H  0.01271679 -1.05069946  2.4736386 
H -2.37471083 -1.42782831  0.52450541
H -2.27016838 -1.94316735  2.16111628
H -3.65846381  1.32011501  2.8964708 
H -4.08162965 -0.40199615  2.82127478
H -3.97676172  1.44103802  0.28743983
H -4.72050353 -0.14893897  0.33016022
H -7.504544    2.26134008  1.18403084
H -6.27233492  2.41595955 -0.25558777
H -7.21907716  0.92742615  0.03637142
