37

C  1.8798688  -2.69095593 -1.03077631
O  2.38885271 -1.42968237 -1.43078797
C  1.81942941 -0.31797724 -0.7337608 
C  2.45890264  0.98070143 -1.22566897
O  1.79064355  2.13921629 -0.64275464
C  0.51240696  2.41168688 -1.3177126 
C -0.20564254  3.34475914 -0.4478761 
O -0.86946441  2.69684502  0.63236702
C -0.14910183  2.17439412  1.76792007
C -1.10742849  1.3150513   2.54150127
O -0.90226556 -0.08333845  2.25678272
C -1.5471929  -0.50466072  1.08740727
C -1.16381665 -1.95923587  0.8979135 
O -1.14214801 -2.35330359 -0.46557914
C -2.27434245 -3.01398404 -0.94976885
H  2.5308804  -3.47860548 -1.46403858
H  0.83999931 -2.85379104 -1.36243395
H  1.98820064 -2.89242174  0.07632756
H  0.72830983 -0.2846216  -0.90574359
H  2.04703251 -0.37997849  0.35870233
H  3.51214952  0.97060556 -0.95956332
H  2.36839481  1.01353559 -2.34565023
H  0.61619258  2.79684075 -2.36764624
H -0.02393624  1.44738779 -1.47567149
H  0.49333268  4.1320118  -0.05089497
H -0.9827712   3.89914695 -0.98744404
H 0.26725893 2.99919984 2.36739909
H 0.73179604 1.61399484 1.45558144
H -0.8532684   1.47000731  3.60848287
H -2.1353474   1.62517412  2.29534898
H -1.23078884  0.13504695  0.19447316
H -2.59095292 -0.4676496   1.18028439
H -1.79005355 -2.66227492  1.48530475
H -0.13680108 -2.11288346  1.25535391
H -1.97502703 -3.8239448  -1.64342596
H -2.91079018 -3.53121163 -0.16939333
H -2.98251168 -2.32508471 -1.48455924
