37

C 6.03101292 2.49631968 0.78893187
O 5.83223993 1.29451768 0.13159681
C 4.75268271 0.63570156 0.75792604
C  4.45000442 -0.58267463 -0.10918722
O  3.15926617 -1.14086113  0.11132218
C  2.56696331 -1.86717904 -0.9705152 
C  1.20856902 -2.4434043  -0.4207486 
O  0.27116655 -1.37563146 -0.55286778
C -1.05025316 -1.68138352 -0.02665498
C -1.80367744 -0.3884428  -0.18939505
O -3.1484923  -0.71688969 -0.21944655
C -4.00519687  0.4294455  -0.39132402
C -5.3960389  -0.05938899 -0.16420214
O -6.29695297  0.98646943 -0.5781549 
C -6.64181706  1.96934659  0.36128166
H 5.68722599 2.50381512 1.84118895
H 7.10339467 2.79221185 0.72325777
H 5.45381011 3.31497133 0.23759113
H 3.91993445 1.35554367 0.87671059
H 5.04379955 0.39582676 1.80073999
H  5.19640654 -1.3841812   0.02883374
H  4.5557132  -0.21808408 -1.13255871
H  3.22790848 -2.55929759 -1.55816613
H  2.25118793 -1.13920147 -1.79659024
H  1.35520632 -2.63761828  0.63730795
H  0.92068015 -3.34807181 -0.95899493
H -1.58255937 -2.55285996 -0.57820589
H -1.00230197 -2.0118882   1.03721362
H -1.60674883  0.38610327  0.55369703
H -1.3677728   0.01296903 -1.13948347
H -3.82785358  0.73381683 -1.4152696 
H -3.81655047  1.25158465  0.31922405
H -5.58623399 -0.38133973  0.88193136
H -5.55469194 -0.94635789 -0.82371597
H -7.20596672  2.78977537 -0.13312892
H -7.30052835  1.58673065  1.18028606
H -5.7935357   2.49960678  0.88956948
