37

C 6.02647244 2.50105696 0.78006245
O 5.83050814 1.28489241 0.11378213
C 4.74698603 0.63903464 0.73671046
C  4.45388059 -0.57833949 -0.12005194
O  3.15388328 -1.13692996  0.08109108
C  2.55999859 -1.84647355 -0.99046462
C  1.21859287 -2.42952648 -0.42713376
O  0.27235306 -1.37170929 -0.56635773
C -1.06604591 -1.66306108 -0.05072956
C -1.79912476 -0.39772952 -0.20971246
O -3.16025261 -0.72511566 -0.21022937
C -4.01983863  0.41057267 -0.40422212
C -5.38711033 -0.06752191 -0.16946395
O -6.30583272  0.9920858  -0.58051973
C -6.6480317   1.95695835  0.37012073
H 5.6798962  2.44404094 1.85100576
H 7.11692551 2.76482943 0.70555486
H 5.47396549 3.30021764 0.26393882
H 3.86491932 1.3161706  0.83743004
H 5.05411749 0.38079611 1.80454855
H  5.18057625 -1.34380171  0.02734284
H  4.55251471 -0.18285547 -1.1500327 
H  3.26052458 -2.59207658 -1.52327174
H  2.28379757 -1.17768899 -1.81178619
H  1.41178523 -2.61317226  0.65214779
H  0.90658276 -3.37036831 -0.92978828
H -1.60463232 -2.54234349 -0.54007351
H -1.07631599 -1.98850997  1.03312397
H -1.51769191  0.39277136  0.5872983 
H -1.44788914  0.0461994  -1.13557093
H -3.86707737  0.78554399 -1.48695296
H -3.81167685  1.25425279  0.39995754
H -5.50053405 -0.3366227   0.92899778
H -5.59615271 -0.9596323  -0.80005266
H -7.18017699  2.86109043 -0.12830843
H -7.3288495   1.59633877  1.25774641
H -5.73104662  2.39662646  0.80386315
