37

C 6.05588692 2.6146244  0.57787264
O 5.76014198 1.31008047 0.32857367
C 4.43678103 0.88999256 0.58872131
C  4.19152049 -0.55439458  0.25031355
O  2.96926633 -1.08542888  0.59712395
C  2.00305352 -0.76486844 -0.40298082
C  0.6499994  -1.39579461  0.03214431
O -0.33334722 -1.06440617 -0.89066213
C -1.63804037 -1.51269366 -0.51273506
C -2.59815906 -1.0948116  -1.63232163
O -3.88512399 -1.68769494 -1.5529343 
C -4.67799987 -1.55260974 -0.35998644
C -4.92863416 -0.02231513  0.00994616
O -3.85357416  0.53829578  0.61645243
C -3.98920468  1.89773154  0.86700387
H 6.08627392 2.91067258 1.66732008
H  5.44489112  3.31738506 -0.03592964
H 7.14395833 2.69178645 0.33698094
H 3.59840559 1.47605175 0.08793863
H 4.28206328 1.01969536 1.69616831
H  4.49584728 -0.69877765 -0.81842631
H  4.90910069 -1.12438142  0.87987662
H  1.94078781  0.34291995 -0.6197061 
H  2.14386323 -1.10472564 -1.4773715 
H  0.74033619 -2.54515158  0.20014452
H  0.24853566 -1.02074289  1.03075454
H -1.61564762 -2.65821795 -0.64278717
H -1.85487358 -1.22334946  0.54165273
H -2.16092159 -1.28854668 -2.66748844
H -2.61525124 -0.01654192 -1.35232312
H -4.19775181 -2.0306013   0.55996326
H -5.66573425 -2.08680303 -0.44211054
H -5.81966646  0.01967751  0.69004311
H -5.29394956  0.39213547 -0.97793031
H -4.03189843  2.58427529 -0.02853679
H -3.0918824   2.36696983  1.33152435
H -4.84905236  2.1605633   1.52371133
