37

C  1.86704962 -2.7093242  -1.09095063
O  2.41628703 -1.43085892 -1.45645967
C  1.84148807 -0.34387269 -0.76582502
C  2.44128662  1.01046946 -1.25106891
O  1.83112539  2.18082248 -0.68896399
C  0.58084649  2.40262449 -1.30119077
C -0.15690759  3.3456005  -0.33926404
O -0.82651904  2.66096113  0.67398783
C -0.09572879  2.21483942  1.81446785
C -1.08662805  1.2952657   2.5352405 
O -0.90202726 -0.0907097   2.27659413
C -1.55418409 -0.56284187  1.13791405
C -1.21224147 -2.003539    0.89873279
O -1.21012469 -2.30414205 -0.48539334
C -2.29749886 -3.05768766 -0.98219272
H  2.58586944 -3.45867497 -1.48351754
H  0.81997696 -2.98187359 -1.41296998
H  1.78259303 -2.63430844  0.04712997
H  0.75420576 -0.35555772 -0.98588844
H  1.91182563 -0.46058981  0.31234822
H  3.4856818   1.04207081 -0.97382085
H  2.33937372  0.98672142 -2.33587176
H  0.82317054  2.97171696 -2.31096293
H -0.00569586  1.47326769 -1.48600117
H 0.64344349 4.04946306 0.04784077
H -0.89434614  3.96654363 -0.88614709
H 0.16537918 3.07252051 2.46187352
H 0.81851676 1.72372238 1.44765609
H -1.0666985   1.40165826  3.6376686 
H -2.10120589  1.65712013  2.25873471
H -1.27609032 -0.05251809  0.21817577
H -2.66644009 -0.39308287  1.22548001
H -1.88106491 -2.74754579  1.36943473
H -0.18799623 -2.13439755  1.30642046
H -1.88211958 -3.81275151 -1.65658144
H -2.88990575 -3.49999726 -0.12288539
H -2.9146964  -2.42111435 -1.65374432
