37

C  2.21248848 -2.76903691 -0.85079341
O  2.52194205 -1.4890918  -1.28888107
C  1.81917481 -0.46010311 -0.63141335
C  2.33418118  0.91199087 -1.13150212
O  1.5826882   2.03096377 -0.70441236
C  0.44338774  2.28700417 -1.46477787
C -0.51473259  3.23192735 -0.66241881
O -1.20334804  2.59092143  0.3735934 
C -0.38692922  2.41182042  1.51518968
C -0.98948347  1.37083532  2.4990253 
O -1.05603227 -0.0190395   2.17752016
C -1.47415424 -0.53470774  0.95380213
C -0.98271768 -1.99331936  0.92743805
O -1.03965425 -2.62798328 -0.34852601
C -2.38786424 -2.88802686 -0.75168368
H  3.08673429 -3.42758083 -1.04931531
H  1.27651688 -3.28585998 -1.1762511 
H  2.24085224 -2.82717546  0.26472986
H  0.71138061 -0.52628871 -0.83185483
H  1.91196763 -0.50557344  0.4918796 
H  3.35337915  1.14130245 -0.70459571
H  2.4551177   0.86380303 -2.23820915
H  0.72821269  2.76431993 -2.46140248
H  0.00788031  1.2988436  -1.7859323 
H  0.07343963  4.09620131 -0.26249725
H -1.26657723  3.70017256 -1.35304328
H -0.31334208  3.36829179  2.13803863
H 0.6790795  2.16932541 1.24465081
H -0.37607118  1.433354    3.42824432
H -2.01822779  1.80184583  2.65266975
H -1.00863935 -0.05953226  0.05548233
H -2.65777695 -0.46408244  0.77333262
H -1.56380335 -2.63674714  1.658323  
H  0.08264409 -1.96563306  1.27067025
H -2.31906352 -3.42178506 -1.74223009
H -2.95263474 -3.61284038 -0.14130393
H -3.01001499 -1.95851593 -0.84354573
