37

C  2.41282602 -2.77397484 -0.69411946
O  2.73256344 -1.48118723 -1.14886806
C  1.88326597 -0.4414811  -0.66862734
C  2.37580317  0.9255827  -1.18862892
O  1.57161648  2.02877236 -0.74481113
C  0.43495491  2.21191944 -1.56781798
C -0.61592569  3.17955031 -0.8027307 
O -1.18614594  2.43087664  0.2222901 
C -0.53236676  2.45102593  1.44915827
C -1.10602458  1.44243014  2.44433743
O -0.87480165  0.06761374  2.12157816
C -1.37866768 -0.56002491  0.97458745
C -0.94921863 -2.03328138  1.02726756
O -1.03861468 -2.62380087 -0.2615667 
C -2.40331207 -2.84471046 -0.67992537
H  3.23155693 -3.36379293 -1.16675641
H  1.41316627 -3.21921199 -0.93807738
H  2.50129436 -2.70126108  0.44239022
H  0.85482205 -0.6622686  -1.04088988
H  1.82848954 -0.47998731  0.41467686
H  3.36697319  1.20162678 -0.76915253
H  2.46211805  0.89630033 -2.26581652
H  0.67996133  2.71332211 -2.59907482
H -0.06588646  1.2298778  -1.69566999
H -0.06026909  4.07339434 -0.41786746
H -1.43627382  3.48748178 -1.52464658
H -0.74481069  3.4018808   1.95408852
H 0.56563896 2.16028137 1.33017582
H -0.59469023  1.56050011  3.41550138
H -2.19440123  1.57960733  2.67217049
H -0.98152691 -0.06601533  0.10135841
H -2.42379931 -0.48330567  0.90820468
H -1.59386711 -2.5322823   1.78390962
H  0.07736897 -2.07893523  1.42058136
H -2.27779091 -3.33656337 -1.68513654
H -2.9899584  -3.47093536  0.07299082
H -2.94406779 -1.88902403 -0.8950834 
