37

C 1.33548254 3.48985773 3.50053362
O 1.2346283  2.41678292 2.60322115
C -0.13463681  2.04901642  2.43701822
C -0.3537861   1.74063483  0.94826319
O -1.73016986  1.34327083  0.81482682
C -2.08592592  0.80240451 -0.44446611
C -1.63771453  1.58016381 -1.68342947
O -0.39861737  1.22361038 -2.22615867
C -0.35799742  0.08947847 -3.07574234
C  0.20769482 -1.12834804 -2.27248609
O -0.8773868  -1.6977514  -1.54429941
C -0.61448897 -3.05243847 -1.24479214
C  0.32647956 -3.30449446 -0.10276211
O  1.6554252  -2.89331347 -0.36805668
C  2.46242337 -2.49417829  0.73545241
H 0.92895624 3.30337423 4.57682599
H 0.73035585 4.32070453 3.05518567
H 2.40092268 3.62276036 3.57974309
H -0.80455248  2.85280469  2.67650446
H -0.31672281  1.17668096  3.11266698
H -0.08754756  2.61097955  0.37349431
H 0.30770865 1.02019634 0.42145024
H -1.80456653 -0.23407051 -0.4694911 
H -3.2037917   0.90586568 -0.42326271
H -2.55636757  1.46513227 -2.29564723
H -1.62187836  2.72982756 -1.50940695
H -1.43182934 -0.14341045 -3.35572783
H  0.2343615   0.36170774 -3.98871437
H  1.00041218 -0.75757337 -1.61216887
H  0.62715226 -1.91563483 -2.93032271
H -0.28209587 -3.59131316 -2.1503039 
H -1.61689314 -3.48864414 -1.0206393 
H  0.35515762 -4.43847755 -0.00686173
H -0.06706185 -2.86566707  0.81017289
H  2.40360099 -1.4461434   0.99240701
H  3.52326556 -2.5646267   0.42587877
H  2.25000365 -3.0891685   1.6610949 
