37

C -3.66538223 -0.61352711 -2.08943798
O -2.28541593 -0.76315105 -2.30790628
C -1.4950368  -0.85625952 -1.17763824
C -0.97520422 -2.28312864 -0.93177816
O  0.02791049 -2.29618488  0.15055874
C  1.31752834 -2.06788316 -0.33770764
C  2.2084303  -1.49896091  0.74819987
O  1.70621769 -0.29382929  1.30562091
C  0.75666654 -0.46333545  2.26610193
C 0.26166119 0.77271269 2.9131591 
O -0.43788082  1.70874075  2.12749084
C 0.21860532 2.6145291  1.20582403
C -0.12069385  2.37449977 -0.23257575
O  0.75513305  1.30833551 -0.67185904
C  1.86892024  1.67334945 -1.48130312
H -4.0825892  -0.43327398 -3.113824  
H -3.94180361  0.23551703 -1.39566536
H -4.1453104  -1.5592421  -1.69024273
H -0.64961002 -0.12251193 -1.31879146
H -2.07909004 -0.51584638 -0.21625662
H -1.82073996 -2.88975345 -0.48883008
H -0.59813672 -2.68972328 -1.89089984
H  1.8434845  -2.99606147 -0.65227903
H  1.32193808 -1.31276981 -1.1400467 
H  2.46246753 -2.33353294  1.54072144
H  3.2041713  -1.26786356  0.3238346 
H  1.03565521 -1.05430873  3.15974804
H -0.13139918 -0.91761726  1.77820571
H -0.33813921  0.35155267  3.76337474
H 1.17324671 1.25822501 3.42863968
H 1.31583948 2.76786054 1.42490629
H -0.11626865  3.66193387  1.40981863
H  0.01336044  3.35724952 -0.7739093 
H -1.2106299   2.00791803 -0.36028247
H  2.56332784  2.44919068 -1.10916286
H  2.50608093  0.72509993 -1.68516413
H  1.53268556  1.96205033 -2.48064376
