37

C -1.84516431 -1.04178783 -3.77306331
O -0.92417263 -1.65552898 -4.64207038
C  0.45689377 -1.26601279 -4.4290476 
C  1.0197729  -1.91612229 -3.17816083
O  0.41117536 -1.53324596 -2.00404164
C  1.05078825 -0.44996799 -1.33679689
C  0.42606294 -0.49320934  0.0468959 
O 1.02320547 0.32768121 1.05497809
C 1.133681   1.72755038 0.77363868
C 1.30968592 2.56337286 2.03472775
O 0.17149126 3.1437279  2.63430539
C -0.90888081  2.21633433  3.04113756
C -0.5658278   0.84152155  3.54736864
O -1.43910501 -0.07649644  2.90627551
C -1.3865372  -1.37105024  3.42396494
H -1.76583578 -1.48038133 -2.78987947
H -2.84154911 -1.2401812  -4.09796363
H -1.56650672e+00 -2.84880741e-03 -3.70521415e+00
H  1.04545879 -1.58263788 -5.30948666
H  0.51555446 -0.12894524 -4.50754677
H  2.16440922 -1.90027605 -3.1827902 
H  0.82719193 -2.98307264 -3.28970717
H  2.14602751 -0.54345817 -1.34364015
H  0.85774347  0.53851416 -1.81845334
H -0.69100689 -0.49439822  0.06515966
H  0.68230698 -1.49112496  0.38130588
H 0.15930525 2.03829616 0.20163097
H 2.08583969 1.91416055 0.16918647
H 1.89536612 2.01483034 2.74342496
H 2.01271896 3.42165789 1.79887736
H -1.41463811  2.81873106  3.74466027
H -1.57336977  2.12061178  2.13832268
H -0.77460305  0.76552916  4.62678305
H 0.47601922 0.50792896 3.37209055
H -1.73441967 -1.48511473  4.47204497
H -2.12873876 -2.03105973  2.88583651
H -0.31034285 -1.79352748  3.34524641
