37

C -2.72759672 -2.1294064  -1.69242394
O -1.42066542 -2.58742804 -1.67541141
C -0.59844669 -2.007543   -0.67421742
C  0.8121305  -2.49291449 -0.91768209
O  1.63225173 -1.89541693  0.08173946
C  2.37471023 -0.75857606 -0.4028799 
C 2.69844253 0.06127331 0.84411543
O 1.53670972 0.7277243  1.39788232
C  0.79007034 -0.12425741  2.29906588
C -0.28771693  0.76100457  2.83916982
O -1.21510961  1.19623422  1.82242901
C -1.00928834  2.31241401  1.04833504
C -1.68728818  2.08850112 -0.32478505
O -0.83054265  1.35140642 -1.19727932
C  0.13434606  2.08834506 -1.94691068
H -3.28257589 -2.76112109 -2.39085921
H -2.71783309 -1.08149622 -2.06653073
H -3.20462402 -2.14563531 -0.68341473
H -0.51890722 -0.87541816 -0.85760184
H -0.97496104 -2.19679209  0.35037565
H  0.85262722 -3.6225243  -0.84577761
H  1.14228834 -2.20003664 -1.93810572
H  3.29501684 -1.10739356 -0.96471807
H  1.76289476 -0.20867121 -1.11741355
H  3.26865768 -0.61879936  1.52440522
H 3.48419597 0.90230263 0.62511168
H  1.51189834 -0.44722196  3.12853062
H  0.41160887 -1.00081909  1.7203364 
H -0.83088211  0.1951171   3.64099466
H 0.26617924 1.57708808 3.31011735
H 0.13209062 2.50232832 0.97697435
H -1.44542207  3.2082599   1.57348059
H -2.0543716   3.04424129 -0.82485978
H -2.55545707  1.45402795 -0.16680564
H  0.4497506   3.06933629 -1.55776845
H  1.04701567  1.50590015 -1.99329054
H -0.24119662  2.21596659 -2.94432784
