37

C -7.61868578  1.10587814  0.32017592
O -6.39227472  0.71542081 -0.26476774
C -5.59306423  0.30781036  0.79568268
C -4.26525111 -0.08172531  0.19347192
O -3.29021815 -0.38636002  1.20447771
C -2.06427022 -0.99275898  0.78021792
C -1.21846704  0.18735292  0.31943267
O  0.02380071 -0.33394193 -0.15571582
C  1.055268    0.62825338 -0.31044487
C  2.38183828 -0.17879058 -0.81665676
O  3.36592872  0.82945452 -1.06532194
C  4.54914861  0.26700214 -1.51478976
C  5.39505844 -0.20824722 -0.3523514 
O  6.65347932 -0.59355249 -0.83854816
C  7.44645094 -1.04129483  0.22627508
H -7.43151015  1.889711    1.09815745
H -8.23178078  1.51535452 -0.4917164 
H -8.21161926  0.28475815  0.80779437
H -5.48512382  1.08858464  1.59671257
H -6.03825782 -0.5796756   1.29707421
H -3.93756235  0.75173876 -0.47997666
H -4.42214928 -0.97174461 -0.45546512
H -2.09404048 -1.81320773  0.03165704
H -1.59042232 -1.37710822  1.68596039
H -1.75470453  0.66830243 -0.53308732
H -1.11296473  0.9431628   1.11633791
H  0.80144846  1.39264464 -1.05781194
H 1.27551168 1.14956293 0.67138536
H  2.79156636 -0.86127502 -0.01109593
H  2.12579559 -0.83789143 -1.68947215
H  5.12840456  1.0275097  -2.05363091
H  4.33146238 -0.59242606 -2.19978164
H  4.85129065 -0.98745178  0.25139044
H 5.55867709 0.65158284 0.34681321
H  7.05430418 -2.01227463  0.63613903
H  8.46656905 -1.21205764 -0.17479689
H  7.49636376 -0.34230059  1.08627555
