37

C -7.55453508  1.08321155  0.06828803
O -6.22208805  0.61213527 -0.30340953
C -5.48590854  0.08035367  0.80059338
C -4.11230687 -0.28092763  0.2268955 
O -3.12877296 -0.25551893  1.31233732
C -1.82486951 -0.59467279  0.99577972
C -1.27585394  0.38407741 -0.04942009
O -0.02769463 -0.16720972 -0.52502575
C  1.09491769  0.62044375 -0.22728427
C  2.26425447 -0.0412833  -1.0085689 
O  3.36447101  0.98108189 -1.10547373
C  4.59921321  0.43351117 -1.50688514
C  5.22424901 -0.40840352 -0.31977621
O  6.66106742 -0.45907841 -0.44498811
C  7.25278497 -1.2570382   0.56103884
H -7.48496898  1.79783711  0.92595302
H -7.96597696  1.50179391 -0.83639414
H -8.39030079  0.45849235  0.4444951 
H -5.40337258  0.81405681  1.63448971
H -6.1042819  -0.83254241  1.19638562
H -3.91829442  0.53279668 -0.48731256
H -4.00802909 -1.25080757 -0.30875178
H -1.64448868 -1.70497712  0.74469236
H -1.28126982 -0.32338453  1.93503987
H -1.99975707  0.36845048 -0.87446643
H -1.20543081  1.5030721   0.15197566
H  0.90632272  1.70367175 -0.63804032
H 1.18391372 0.67735082 0.8736839 
H  2.73389364 -0.84058395 -0.46712091
H  1.89380299 -0.39486655 -1.98523636
H  5.28396428  1.29055074 -1.63744482
H  4.44681094 -0.24549745 -2.31062444
H  4.69577504 -1.39358614 -0.32175415
H 5.04712812 0.0845723  0.68598414
H  7.21709865 -2.3190347   0.33435825
H  8.2856367  -0.94323787  0.79270255
H  6.8828961  -1.21480894  1.67328465
