37

C  2.20097735 -1.5446263   0.60676046
O  2.01097951 -0.64732936  1.6433832 
C 2.8268063  0.42393892 1.7429823 
C 2.47162952 1.64284404 0.87331613
O 1.60197017 2.61044448 1.42504384
C 0.36129123 2.71267848 0.76677774
C -0.88011485  2.56660112  1.5802392 
O -0.9389825   1.35489571  2.32462256
C -1.1587631   0.17217803  1.51985214
C -2.33499938  0.21430942  0.51206413
O -2.05210692 -0.92060138 -0.3281934 
C -2.79720443 -0.978785   -1.59404875
C -1.82790925 -1.80143502 -2.46955506
O -0.50286556 -1.27660129 -2.16297109
C  0.39753734 -2.2052975  -2.64561827
H  2.19736041 -2.65323712  0.94868045
H  1.38034843 -1.51309724 -0.08845642
H  3.07597229 -1.26961029  0.03348449
H 2.64183356 0.77771573 2.74813307
H 3.94679685 0.19925604 1.49573194
H  2.15674621  1.28098029 -0.15099705
H 3.4559804  2.09410338 0.63605027
H 0.27310778 1.88074097 0.06335801
H 0.3070623  3.77429876 0.37121441
H -0.88511274  3.32323154  2.47518859
H -1.76597844  2.79094877  0.99522306
H -1.3701549  -0.64724226  2.33031532
H -0.21896348 -0.29647419  1.01877978
H -2.38614446  1.19723348 -0.08346267
H -3.32917915  0.10177375  1.10861011
H -3.10153458  0.02549893 -2.02441911
H -3.72675548 -1.53763599 -1.39928529
H -2.08816702 -2.8553335  -2.30710136
H -2.19153429 -1.59687841 -3.49377502
H  0.57236296 -2.06693178 -3.71691548
H  0.2942289  -3.2888898  -2.65101085
H  1.38347903 -2.04366541 -2.10400137
