37

C  1.72735794 -2.76660136  4.3886178 
O  1.62759269 -1.81562311  3.4269153 
C  1.88373664 -0.51311134  3.97400464
C 0.49219562 0.26091378 3.77999817
O 0.14701357 0.32554806 2.45402118
C 1.10751533 0.68500153 1.4637739 
C 0.34913484 1.16524267 0.22745481
O -0.25276658  0.1385223  -0.52314432
C -1.64289419 -0.04491732 -0.20741047
C -2.38513906 -0.72026566 -1.37134532
O -2.79726229  0.19476308 -2.4036302 
C -2.19337784 -0.08563222 -3.6195602 
C -0.88894014  0.60953095 -3.73739041
O -0.61852625  0.94223587 -5.05600452
C  0.64859635  1.66567165 -5.20543115
H  0.78270816 -3.30836473  4.58994099
H  2.56747702 -3.42361405  4.21458578
H  1.9702481  -2.29021386  5.33817458
H  2.19207311 -0.61053871  5.04528677
H  2.78509456 -0.08553882  3.41269544
H 0.53643153 1.3697608  4.23024062
H -0.26454055 -0.28637339  4.37773665
H  1.74230959 -0.18017147  1.27890925
H 1.77629153 1.50787268 1.83944785
H -0.37559713  1.9646234   0.62543419
H  1.06670675  1.66719378 -0.41691485
H -1.69442204 -0.79742448  0.71869005
H -2.10810609  0.87705754  0.03340875
H -1.7119675  -1.50625866 -1.65739904
H -3.41318151 -1.09108736 -0.97539327
H -2.81363831  0.34666818 -4.44340076
H -2.2046571  -1.17879621 -3.82878929
H -0.03051526 -0.02642975 -3.3491608 
H -0.97540899  1.48760547 -3.01744804
H  1.57069551  1.2263325  -4.72090238
H  0.81084061  1.72577563 -6.2840831 
H  0.58692136  2.57064261 -4.60192858
