38

Li -0.02914489  0.01591718 -0.29258588
C -2.34943457  1.61757017 -0.79910877
O -1.79473447  0.31761969 -0.75756175
C -2.39412916 -0.5707487  -1.72149249
C -1.79577698 -1.93215185 -1.43722642
O -0.39378236 -1.77958903 -1.41243566
C  0.32912184 -2.95128179 -0.9799527 
C  1.6507306  -2.43284139 -0.40073156
O  1.32370464 -1.28085841  0.44748238
C  1.41904683 -1.46756129  1.84618369
C  0.95839605 -0.2162349   2.63497341
O -0.13716851  0.39527808  1.93760174
C -0.11025636  1.7904373   1.87971227
C 0.76761094 2.44808907 0.82596569
O  0.70614063  1.81823153 -0.45595693
C  1.63144795  2.46692229 -1.45176805
H -1.68797724  2.29485154 -0.21798458
H -2.32058787  1.9650382  -1.82641311
H -3.34454818  1.65467181 -0.3670619 
H -2.15927893 -0.25471527 -2.73772504
H -3.50834995 -0.56493391 -1.51850632
H -2.2034673  -2.30294153 -0.46409004
H -2.18915918 -2.67267389 -2.13478666
H -0.28817506 -3.40523003 -0.16277239
H  0.58728038 -3.67301169 -1.75144993
H  2.33255624 -2.08058618 -1.25295211
H  2.1797763  -3.31925061  0.12413833
H  2.44973006 -1.76446045  2.20105159
H  0.79607721 -2.33326945  2.15175988
H 1.83234884 0.44521004 2.75919552
H  0.7788673  -0.40969124  3.7000823 
H 0.32132424 2.16406876 2.82822023
H -1.09394701  2.24568615  1.75993254
H 1.82452287 2.58905107 1.22728962
H 0.47270928 3.4979386  0.65262262
H  2.02453227  3.2917483  -0.90707852
H  1.06065997  2.70644227 -2.35501837
H  2.35333359  1.68725956 -1.57155262
