38

Li -0.94719493 -0.22476799 -8.06634456
C 2.77397698 1.84817031 7.21227015
O 1.52595418 1.19748724 6.77338589
C 1.61993129 0.35613044 5.67720934
C 0.7138396  0.90270032 4.5719349 
O 0.94866308 0.21803081 3.35394327
C -8.55179851e-04  6.19588310e-01  2.36115674e+00
C  0.23083429 -0.30278099  1.18443294
O -0.64015576  0.07418856  0.12708749
C -0.48010247 -0.61002411 -1.11385491
C -1.19417168  0.25266518 -2.25154785
O -1.32636759 -0.67407216 -3.34211965
C -2.17431901 -0.16054464 -4.30423033
C -2.25477166 -1.06390486 -5.5015229 
O -1.06047487 -0.98700632 -6.43141604
C  0.07778101 -1.72774117 -5.91927335
H 3.17508834 2.53328465 6.4548409 
H 2.49256916 2.39144419 8.12108457
H 3.52975972 1.12246191 7.60384968
H 2.67466721 0.21443826 5.31834393
H  1.29999736 -0.68825576  6.0057142 
H 0.94428462 2.01403494 4.52769449
H -0.38223283  0.79296775  4.81721874
H 0.19725737 1.70130561 2.12629459
H -1.03950055  0.50527038  2.74149989
H  1.29962745 -0.29166017  0.86945825
H -0.0245398  -1.40112325  1.5641543 
H -0.84744229 -1.70235953 -1.09292536
H  0.63090969 -0.72384994 -1.4261756 
H -0.48416625  1.04033402 -2.63200865
H -2.1782671   0.7262011  -1.97842721
H -1.8216566   0.81221036 -4.68830318
H -3.24186455 -0.06539255 -3.94757854
H -2.24580193 -2.04721162 -5.04446477
H -3.11609789 -0.95790921 -6.24675524
H  1.01368975 -1.43848081 -6.53997837
H  2.75196883e-03 -2.77963302e+00 -6.03275449e+00
H  0.30839988 -1.47619622 -4.85189324
