38

Li -1.48544072  0.15749581 -2.6368324 
C 3.58595287 0.22792762 4.08014488
O  3.9647858  -0.27470322  2.7924248 
C  2.86366635 -0.42947357  1.95144237
C  2.71647396 -1.83632828  1.3269941 
O  1.8485869  -1.75152025  0.22077019
C  2.32311386 -1.10573582 -0.9324925 
C  1.23183669 -0.16116832 -1.34659426
O  0.74549356  0.68795046 -0.24760992
C -0.57197323  0.51792142  0.34690931
C -1.27259361 -0.80498065  0.35947619
O -1.95099769 -0.99715295 -0.93041401
C -3.30375025 -0.73491518 -1.12824022
C -3.67793356  0.82887775 -1.38707338
O -2.87169873  1.30559494 -2.4788976 
C -3.31906861  2.59363536 -2.92015758
H  2.78806588 -0.46378099  4.50896817
H 4.48581641 0.26373885 4.67894073
H 3.20324523 1.2576783  3.98574497
H 2.86779061 0.3818107  1.09920979
H  1.86807091 -0.23946592  2.4369063 
H  2.30997704 -2.61381551  2.02824499
H  3.74878234 -2.29500063  1.06039794
H  2.5843678  -1.85917256 -1.75481652
H  3.28149879 -0.52949455 -0.77121429
H  1.69435746  0.54503628 -2.09745642
H  0.43030564 -0.80702705 -1.77995121
H -0.31597056  0.78657036  1.43100732
H -1.14706772  1.26854435 -0.20621032
H -2.06959962 -0.87165561  1.08969888
H -0.56468737 -1.6329327   0.61561536
H -3.63046283 -1.24783579 -2.04736072
H -3.8829268  -1.05017944 -0.21617432
H -3.38754396  1.32876718 -0.43399064
H -4.82069488  0.8746147  -1.55393462
H -2.75781087  2.81522056 -3.8689785 
H -4.38757113  2.51913555 -3.13144599
H -3.12439599  3.3458188  -2.14305087
