38

Li -2.49821991 -1.75319853 -0.53585737
C -0.50174617 -3.84123015  0.50964066
O -0.89466669 -2.7195638  -0.33957355
C -0.74726259 -2.76811573 -1.73679195
C -0.86573671 -1.41430818 -2.52937624
O -2.22331811 -0.96944675 -2.2739164 
C -2.46554723  0.43510062 -2.44252424
C -1.94652443  1.0591867  -1.16016544
O -2.16052012  0.0070452  -0.17720324
C -1.67901749  0.37816686  1.12724413
C -0.19202433 -0.14517526  1.25550015
O 0.58717819 0.78995919 0.5060213 
C 1.94047518 0.90270018 1.04380435
C 2.16372084 2.25069257 1.72907022
O 3.53361121 2.46894534 1.98881876
C 3.8773711  3.79735664 1.75987389
H -0.29622048 -3.41973507  1.54445067
H  0.41375248 -4.25442256 -0.01087149
H -1.22144566 -4.59255712  0.54192726
H -1.44027942 -3.5938632  -2.08872425
H  0.23691787 -3.09365938 -1.97971257
H -0.15359087 -0.70928592 -2.06543394
H -0.71653776 -1.715156   -3.57974032
H -2.08217869  0.75824957 -3.40605514
H -3.53695899  0.37830848 -2.53121866
H -0.83047166  1.15777702 -1.12577531
H -2.41796833  1.97323122 -0.85761441
H -2.38014573 -0.19107542  1.76900583
H -1.8630449   1.44438912  1.21446751
H -0.17099243 -1.12649782  0.76948157
H  0.28512037 -0.35841872  2.28352881
H 2.70768092 0.827546   0.19413212
H 2.13442953 0.06514363 1.75562474
H 1.6853831  2.39035293 2.71632084
H 1.72313796 3.05534985 1.11188844
H 3.57711422 4.51605704 2.5706502 
H 4.98772991 3.79097538 1.673718  
H 3.43079581 4.21917607 0.77538506
