38

Li -2.11734056 -1.30654735 -3.44550724
C -4.49380299 -1.71639861  0.43013363
O -3.97810071 -0.79696394 -0.56271938
C -4.78153635 -0.72134953 -1.74644856
C -4.22938437  0.40467846 -2.52755648
O -2.89713692  0.34378292 -3.05144664
C -1.90082081  1.13959109 -2.34002057
C -1.49356931  0.4524426  -1.07813653
O -0.28852533  0.97017759 -0.64188388
C 0.31856886 0.26514108 0.44363518
C 1.83152266 0.50393514 0.45183724
O  2.15889663 -0.17432838  1.70927227
C 3.23490058 0.29343916 2.50584846
C  4.59614959 -0.13006474  1.98775226
O 5.61194108 0.67591267 2.55292941
C 6.93409983 0.30644493 2.11553628
H -4.54967994 -2.72829611 -0.03231262
H -5.46216881 -1.37596617  0.88450567
H -3.73920372 -1.75477868  1.26468186
H -5.86402755 -0.52371535 -1.49050865
H -4.7864902  -1.64737381 -2.41183923
H -4.75542194  0.59441892 -3.46923288
H -4.2721133   1.31679926 -1.85817618
H -1.03235574  1.29299649 -3.04022147
H -2.32877335  2.13306445 -2.17245179
H -2.31825479  0.64669756 -0.40335799
H -1.45241271 -0.66431571 -1.20819196
H  0.12408845 -0.8158476   0.35020229
H -0.13777623  0.56220597  1.40709021
H 2.059802  1.6008943 0.5268856
H  2.40975472 -0.02388207 -0.34021778
H  3.06329520e+00 -1.69672689e-03  3.56658615e+00
H 3.23645788 1.40399876 2.46768437
H  4.59479821 -0.16533468  0.8364254 
H  4.80150199 -1.1757794   2.28274644
H 7.58939322 0.26585322 2.97021633
H  6.98738693 -0.63268046  1.60729026
H 7.32633782 1.18284476 1.45897053
