38

Li  0.48644666 -0.13489617  0.05839557
C  0.60406345  0.33643825 -2.98574725
O  0.19269101 -0.53505989 -1.88711691
C -0.12034323 -1.86470685 -2.24389716
C -0.05374244 -2.74152749 -0.96876134
O -0.34386419 -1.83997098  0.19582455
C -1.62738661 -1.7902827   0.70520797
C -2.38175144 -0.62089369  0.18262506
O -1.53523433  0.52251787  0.49453759
C -1.61595635  1.72784773 -0.2771826 
C -0.50731696  2.62556024  0.20966281
O  0.73101954  2.0096487  -0.08467926
C 1.78848667 2.21781109 0.8442495 
C 1.61900319 1.36710528 2.10427669
O 1.64369197 0.03932399 1.61863506
C  1.7278417  -1.00648554  2.58016381
H -0.13694274  0.26996119 -3.87262877
H  1.57137483 -0.04004001 -3.40038922
H  0.65492924  1.43418373 -2.69505702
H -1.16527898 -1.90477105 -2.62203712
H  0.48490056 -2.22221377 -3.08564287
H -0.83115161 -3.57409047 -0.95617425
H  0.98720462 -3.13730829 -0.79235881
H -2.24083217 -2.72258154  0.57216809
H -1.438911   -1.76163874  1.81907929
H -2.59119477 -0.7466358  -0.90589441
H -3.31768629 -0.50775336  0.70934835
H -2.67180124  2.15687134 -0.10088322
H -1.59545585  1.56417749 -1.33885658
H -0.56561864  3.59628244 -0.2923057 
H -0.60754638  2.74562088  1.28517847
H 1.85443906 3.28703106 1.03201533
H 2.65587791 1.77452136 0.29513243
H 0.65416186 1.59571675 2.66456689
H 2.42495745 1.67013057 2.72042091
H  2.78075507 -1.09663664  2.93266502
H  1.05550972 -0.79190451  3.45714646
H  1.43066071 -1.90135246  2.02831265
