38

Li -1.04515982 -0.95124252 -0.74329051
C 0.94150941 2.85945769 3.05889204
O 1.31718251 1.47475752 2.74538441
C 2.55993357 1.10616904 3.32781808
C  2.91565521 -0.30075334  3.1631511 
O  3.03663303 -0.32361468  1.73464037
C  1.76696488 -0.4963399   1.13972331
C  1.80876728 -1.69148226  0.20423391
O  0.74619962 -1.40873346 -0.79148414
C  1.26978175 -0.61781407 -1.97197612
C  0.22223148 -0.7473983  -2.99860014
O -1.01077678 -0.31339606 -2.35473266
C -2.14226394  0.10666505 -3.23836971
C -3.2845151   0.40371704 -2.26103348
O -3.36915881 -0.42822826 -1.07398478
C -4.62507732 -1.10284988 -0.89594545
H -0.18325631  2.91953248  3.324419  
H 1.13263844 3.5631129  2.26112318
H 1.5287576  3.16589572 3.92232182
H 3.31521115 1.76877612 2.88682169
H 2.56550811 1.26514255 4.43365786
H  3.962928   -0.37390837  3.62383784
H  2.29437287 -1.04998014  3.64365131
H 1.48165433 0.38923153 0.46755436
H  0.95969442 -0.44433934  1.90567799
H  2.7915156  -1.86266266 -0.24038497
H  1.48519742 -2.62265373  0.70474322
H  2.21252979 -1.06483245 -2.2093907 
H  1.44093994  0.45035021 -1.59321171
H  0.12935125 -1.81153447 -3.21730597
H  0.32219417 -0.16960079 -3.99089993
H -2.25467404 -0.62052394 -4.07179186
H -1.94497162  1.09122371 -3.7580225 
H -3.2490776   1.44356735 -1.87487719
H -4.28295655  0.33929908 -2.73539931
H -5.23697963 -1.1287822  -1.85915428
H -5.1666453  -0.68278357 -0.01501555
H -4.41183901 -2.13344361 -0.65278053
