38

Li -3.00864804 -1.62692482 -1.61799677
C  1.39771715  3.98728319 -1.17573443
O  1.46166724  2.69496919 -1.91418556
C  1.44231047  1.62600098 -1.02943322
C  1.84131492  0.33875891 -1.78078995
O  1.3445692  -0.79201822 -1.09669402
C  2.12126719 -1.14953983  0.01465294
C  1.65956293 -2.53293769  0.31058423
O  0.28753588 -2.62224159  0.68236017
C -0.60980007 -3.17500878 -0.27669065
C -2.01400371 -2.92882323  0.28117615
O -2.53234426 -1.59907374  0.04182044
C -1.6342477  -0.49468809  0.47829094
C -2.39943549  0.78767723  0.8421406 
O -1.39260165  1.74507271  0.95492732
C -1.18514566  2.26336955  2.28328819
H  1.58166318  4.76901593 -1.96346928
H  2.30605532  4.20591685 -0.50762194
H  0.34929598  4.13379614 -0.76761275
H  2.16540783  1.77148803 -0.15323696
H  0.41746011  1.41490383 -0.6511158 
H  1.338737    0.33642592 -2.76926591
H  2.92026375  0.29322035 -2.0183036 
H  3.23389188 -0.9320406  -0.12081564
H  1.71750784 -0.43867705  0.80975794
H  1.83713864 -3.14467352 -0.57764294
H  2.28192916 -2.89991308  1.18922469
H -0.44893674 -4.26084945 -0.44594212
H -0.45897441 -2.74971398 -1.29289899
H -2.68458594 -3.78947606 -0.09091649
H -1.87041022 -3.00489811  1.42548521
H -0.9233929  -0.2984389  -0.30377987
H -1.08316875 -0.90023656  1.34600141
H -2.92070501  0.65073811  1.81357056
H -3.16017674  1.11576777  0.12207548
H -0.49252755  3.13511644  2.1756052 
H -2.16943171  2.49272519  2.77137855
H -0.71675913  1.57792697  3.01180688
