38

Li -1.44676557 -0.38441691 -1.00838272
C 0.74510433 2.34694925 3.80585663
O 1.57019207 1.86475986 2.82164376
C 2.88828323 1.47443185 3.28583471
C  3.14643877 -0.0656951   3.16306405
O  3.04344625 -0.60527156  1.93001833
C  1.66250111 -0.72048801  1.48901565
C  1.43133786 -1.68793925  0.25516917
O  0.51677637 -1.08483551 -0.72191878
C  1.07942404 -1.19412572 -2.09044553
C  0.43451221 -0.1471975  -3.0914143 
O -0.8821333   0.35379433 -2.60939012
C -2.053966    0.13306105 -3.39371865
C -3.34073462  0.5774719  -2.58807111
O -3.51477597 -0.01291992 -1.24898644
C -4.49319608 -1.023063   -1.19433265
H 0.37482753 1.62558316 4.56389683
H -0.11351992  2.76829889  3.19851223
H 1.16911878 3.19954792 4.41434528
H 3.67008898 2.05363028 2.73638585
H 3.14951315 1.72833136 4.35235754
H  4.18939114 -0.20385566  3.39610431
H  2.52687856 -0.61468781  3.91929486
H 1.28565684 0.32830526 1.25332191
H  1.10012731 -1.18376391  2.34234481
H  2.43815994 -1.77137814 -0.27377295
H  1.04244151 -2.71179756  0.47767282
H  0.97922374 -2.28242254 -2.4421391 
H  2.16742748 -0.89304274 -2.10192811
H  0.20277084 -0.58367077 -4.12114926
H  1.03744182  0.74828647 -3.24762662
H -2.07776621 -0.92079975 -3.82750527
H -2.12921441  0.91573581 -4.19529101
H -3.2703959   1.65096487 -2.39636959
H -4.20114125  0.44215151 -3.31694371
H -4.02656725 -2.07374185 -1.12229309
H -5.12712784 -1.1292508  -2.14917702
H -5.17377956 -0.91693975 -0.26398269
