38

Li -0.38993686  0.24910436 -0.35994524
C -1.27709193  1.21046626 -2.70407398
O -0.67330193  0.07770924 -2.19363967
C -0.26344885 -1.09540186 -2.95790486
C  0.8045203  -1.76021487 -2.05524972
O  0.3442545  -1.50954491 -0.70639857
C  0.71533602 -2.57535565  0.18953469
C  0.11711216 -2.14706535  1.53442456
O  0.43665968 -0.75871562  1.86929941
C  1.80981612 -0.35918743  1.91837294
C 2.33677933 0.56747253 0.80052403
O 1.11114676 1.37371344 0.28880028
C 0.45379878 2.1817075  1.30712972
C -0.94940563  2.60269512  0.85903795
O -1.63506158  1.34566373  0.47954929
C -2.52923662  0.74044093  1.45700669
H -2.04595986  1.64435877 -2.07654921
H -0.54647403  1.96277539 -3.04503641
H -1.90672159  0.99690405 -3.55920693
H  0.01151225 -0.83187364 -4.00036444
H -1.06176316 -1.79322887 -3.13797995
H  0.82913529 -2.80872809 -2.34226907
H  1.744789   -1.21921317 -2.15607453
H  0.44538211 -3.57942016 -0.17082688
H  1.81441696 -2.58195897  0.32808599
H  0.46219384 -2.76822696  2.41879098
H -0.98649573 -2.2722984   1.53407094
H  2.52565411 -1.22205742  1.93282219
H 1.92363528 0.17188527 2.88019866
H  2.65569679  0.02711661 -0.0909812 
H 3.09584642 1.22527666 1.09231098
H 1.0631313  3.1265392  1.49224042
H 0.33314376 1.62482417 2.28101706
H -9.99004195e-01  3.26728179e+00 -3.10293347e-03
H -1.49393919  3.19114602  1.61510037
H -3.30409314  1.46114439  1.81827602
H -2.04366142  0.42662572  2.40853248
H -2.92836505 -0.19235977  1.05447794
