38

Li  0.22718245 -0.30106508 -0.44874253
C -1.48825203  2.13870824 -1.53468016
O -1.24750058  0.73810539 -1.36741374
C -1.95323349 -0.06261437 -2.41934978
C -1.99556889 -1.45929157 -1.9364099 
O -0.79618789 -1.80159114 -1.26424135
C -0.0964811  -3.13950682 -1.4716242 
C  1.37735813 -2.72531762 -1.58713316
O  1.73280735 -1.70954175 -0.64107333
C  1.96885358 -2.15024841  0.68204273
C  2.15238229 -0.84691644  1.48293926
O  0.95457528 -0.03102673  1.2957587 
C 0.63310087 0.81857999 2.43412273
C -0.48560219  1.79187888  2.05551116
O -0.00460409  2.86091237  1.22489437
C 0.30309024 3.97742835 2.0961604 
H -0.61020479  2.59180737 -1.05698091
H -1.467715    2.47358964 -2.60850368
H -2.40811432  2.5203626  -1.05711307
H -1.38952312  0.03992475 -3.36719099
H -2.96666223  0.36502847 -2.52628952
H -2.85856458 -1.51882563 -1.20186421
H -2.19318666 -2.20601572 -2.77379998
H -0.34868466 -3.7754205  -0.55798335
H -0.6137653  -3.54525838 -2.37675014
H  1.61100675 -2.34398136 -2.55143386
H  2.01420401 -3.60199054 -1.41757214
H  2.92158102 -2.75365633  0.72949892
H  1.14545977 -2.76625223  1.05390643
H  3.0454016  -0.33989208  1.04780171
H  2.28535375 -1.06307717  2.5957298 
H 1.59419734 1.35194875 2.68480926
H 0.24237362 0.21891324 3.22355349
H -1.03661814  2.20597962  2.96821684
H -1.36910716  1.19082822  1.63899951
H -0.63065754  4.31414489  2.58410812
H 0.67862698 4.84628143 1.53330728
H 1.07267872 3.69706768 2.83478927
