38

Li  0.1014168  -0.05942097  0.04733793
C  0.65658781  0.47576891 -2.9006592 
O -0.15494392 -0.20335025 -2.00100084
C -1.50624701 -0.34200366 -2.49976508
C -2.51832587  0.02725972 -1.34810921
O -1.82579976  0.897893   -0.43622791
C -2.37090116  0.91428472  0.9144032 
C -1.51446489  1.75765199  1.83234524
O -0.1868109   1.30913105  1.64562278
C 0.83753593 2.25404512 1.30879181
C 2.13998194 1.53729705 1.56491883
O 1.89812539 0.27802076 0.95200034
C  2.37991925 -0.85994184  1.60134633
C  1.92312714 -2.05378056  0.68534589
O  0.47734935 -1.88111549  0.51621861
C -0.07616198 -2.99238601 -0.18422588
H  1.64844492  0.6914872  -2.43914773
H  0.1505213   1.37171739 -3.18346925
H  0.78767255  0.00540405 -3.90680617
H -1.7480688   0.17490703 -3.47290001
H -1.62193666 -1.41362195 -2.78545101
H -3.35857418  0.59581514 -1.74499318
H -2.87673938 -0.85841466 -0.80378981
H -3.39255014  1.36508027  0.84667739
H -2.55230934 -0.13823354  1.20225241
H -1.60912202  2.83469953  1.71373652
H -1.84869182  1.61306365  2.88094689
H 0.6644722  3.21977069 1.79756444
H 0.80564473 2.6063878  0.22460941
H 3.03721742 2.0397242  1.21950182
H 2.2577071  1.33574728 2.66452975
H  1.947927   -1.10693138  2.56594099
H  3.47589679 -0.80703209  1.71303744
H  2.22364857 -3.04872717  1.17892911
H  2.46945547 -1.95630231 -0.31927326
H -1.11278247 -2.72385122 -0.47728731
H  0.45610414 -3.07095757 -1.12494078
H -0.06432549 -3.78908586  0.55198953
