38

Li -0.61756498 -6.40120437 -4.10421096
C -1.76584502 -3.49208864 -3.51861574
O -1.13939655 -4.77963603 -3.41219893
C -0.59868865 -5.03283768 -2.13253577
C  0.42780015 -4.06326139 -1.59337136
O -0.20167563 -3.33694292 -0.38496782
C  0.80141437 -2.52048378  0.21749544
C  0.81096448 -1.10300798 -0.41599399
O  1.60429784 -0.22652969  0.41651999
C 1.28650546 1.15854416 0.27360427
C 0.74432771 1.65010923 1.60964759
O 0.98992561 3.05859092 1.778885  
C 0.15166359 3.83751726 0.96998165
C -0.67914818  4.92231607  1.79058778
O -0.91925417  4.68372341  3.09893238
C -0.21908795  5.60055979  3.94439562
H -2.7368307  -3.72174654 -4.02662546
H -1.11158278 -2.76848354 -4.03016427
H -1.96425455 -3.08892156 -2.47721302
H -0.22257117 -6.15900376 -2.12268932
H -1.47817721 -5.12446676 -1.41271725
H  1.19375149 -4.72471899 -1.17108796
H  0.8641504  -3.35483718 -2.32970855
H  0.47106931 -2.34527045  1.27335014
H  1.84368831 -2.94990626  0.22716331
H  1.07881395 -1.03197972 -1.44556164
H -0.25577601 -0.69692033 -0.52371026
H 2.15328537 1.82026275 0.03587383
H  0.52196062  1.28904742 -0.57610384
H 1.25461152 1.17456821 2.45724915
H -0.39884646  1.63017826  1.67135085
H -0.63981144  3.18340562  0.42979361
H 0.73901991 4.35674266 0.23320314
H -1.65738653  5.11054848  1.28514659
H -0.12650216  5.873439    1.618541  
H 0.84330394 5.57165278 3.81155358
H -0.54030081  5.37062788  4.96799852
H -0.50785309  6.63041369  3.56620269
