38

Li -0.59694335 -0.95404632 -1.71861864
C 2.16743185 0.91475739 6.56452496
O 2.32034891 0.66325939 5.14652006
C 1.30196601 1.36403005 4.4548408 
C 1.2319705  0.75056004 3.09954533
O 0.1829155  1.34234534 2.33165076
C -0.01788818  0.60242186  1.19375296
C -0.81178087  1.36740055  0.1733899 
O -0.60328303  0.71760235 -1.09729076
C -0.26663939  1.77517863 -2.15562412
C -0.38791857  1.07387552 -3.48544809
O  0.15218533 -0.26822222 -3.3752219 
C -0.19664748 -1.15942968 -4.43661608
C -0.44903551 -2.62467652 -3.85486907
O -0.88862094 -2.56447427 -2.49979257
C -2.26444267 -3.08620319 -2.20195346
H 2.89453078 0.31878226 7.10373847
H 2.28206096 2.01434653 6.8208516 
H 1.17440771 0.52230046 6.82310252
H 1.34268708 2.45940403 4.50797938
H 0.29935787 1.26856912 4.89318161
H  1.15330591 -0.34773062  3.22775039
H 2.19194261 0.93880192 2.53960299
H -0.55913412 -0.31305577  1.46947058
H 0.94592927 0.27660713 0.74037934
H -0.62453176  2.46916084  0.10208502
H -1.88294863  1.31342941  0.45238721
H -0.94956737  2.6071773  -1.93467666
H  0.79706034  2.08970622 -2.01013206
H -1.436258    0.9335914  -3.80332398
H  0.10037129  1.62113513 -4.28229944
H  0.64958617 -1.18922102 -5.15618112
H -1.10048979 -0.87702198 -4.98458776
H -1.16599066 -3.15372186 -4.5437512 
H  0.60652845 -3.07248644 -3.7222537 
H -2.47109612 -2.70775822 -1.21198138
H -2.93026893 -2.8835726  -3.05076648
H -2.19110116 -4.20282215 -2.11936542
