38

Li -1.18687126  2.07854291 -2.44383065
C -1.10047585 -0.65086332 -3.2893394 
O -1.77431721  0.3138345  -2.44438458
C -1.35340123  0.41261344 -1.06541526
C -2.56780943  0.33020461 -0.2341324 
O -2.21386025  0.70348188  1.05196998
C -1.67083901 -0.35178121  1.97871702
C -0.68677069  0.3813379   2.88087713
O 0.49180006 0.79610109 2.21403825
C 0.42615279 1.92679153 1.44415016
C 1.62937435 2.11308331 0.54527699
O  1.7536262   1.05966551 -0.45146603
C  2.49109783 -0.05860321  0.08034188
C  2.3846651  -1.22537708 -0.88384465
O  1.12800567 -1.84296652 -1.12178989
C  0.67351823 -2.59189194 -0.02531458
H -1.50711251 -0.41962885 -4.26181607
H -1.36386875 -1.64683431 -2.93019368
H  0.01312869 -0.46726831 -3.18905755
H -0.46982967 -0.19100658 -0.68008696
H -0.90695236  1.46782079 -0.84658523
H -3.28774583  0.98985075 -0.62644219
H -2.96666772 -0.66715345 -0.37682546
H -2.45214807 -0.84197165  2.55665935
H -1.17993535 -1.14259556  1.38775325
H -1.03994112  1.23037262  3.52288923
H -0.26657144 -0.3386956   3.64297867
H 0.27416087 2.85838272 2.06791526
H -0.36542494  1.71006643  0.68527261
H 1.50388614 3.07240356 0.01368355
H 2.52386827 2.14638354 1.19164784
H  2.02958047 -0.32020485  1.0541274 
H 3.57178837 0.26739602 0.21945371
H  3.11122478 -2.00682654 -0.5506757 
H  2.77296625 -0.79809643 -1.82677483
H -0.42124296 -2.70136323 -0.23378059
H  1.11990001 -3.60811119  0.06199715
H  0.88304158 -1.98709325  0.88200627
