38

Li  1.31944403 -0.00705374 -1.35239366
C  0.38214032 -0.17622142 -3.88717476
O  0.54757425  0.70431556 -2.79965184
C -0.64574062  1.40534192 -2.43813578
C -0.52236611  2.00403762 -1.10796525
O  0.74166971  1.61360786 -0.49935758
C 1.0192713  2.22904565 0.84831671
C -0.30307643  2.48020215  1.61325248
O -0.70184701  1.13499483  1.76975003
C -1.05264277  0.63846002  3.04327009
C -0.609016   -0.88155465  3.24510048
O -1.04726579 -1.89467926  2.39072581
C -0.79426151 -1.84930486  0.9531424 
C  0.69798077 -1.84328546  0.78422079
O  1.03493887 -1.70968598 -0.60626838
C  1.15131221 -2.93618158 -1.33346847
H  1.36904742 -0.58331658 -4.30450939
H -0.10424302  0.33770619 -4.7626691 
H -0.29980295 -1.03678903 -3.60574403
H -0.97277002  2.05886482 -3.27413565
H -1.50335043  0.69021866 -2.379743  
H -1.35908348  1.5812386  -0.50762121
H -0.63965766  3.0785194  -1.02436009
H 1.49058668 1.43214288 1.44669236
H 1.76904443 3.09894011 0.75953397
H -0.12799596  2.91237568  2.63121595
H -1.00823372  3.0941957   1.01615302
H -2.17218954  0.54633086  3.09925155
H -0.6331709   1.23758596  3.92834316
H  0.53875481 -0.95109736  3.39914939
H -1.00896202 -1.11808267  4.23158919
H -1.23016003 -2.80487621  0.51793094
H -1.09934346 -0.91578064  0.44378565
H  1.12427677 -2.78162648  1.18829169
H  1.17320987 -0.94360475  1.22565936
H  1.32280807 -2.79172851 -2.38837603
H  2.00806296 -3.53974764 -0.93719258
H  0.14505698 -3.51350766 -1.3266082 
