38

Li  0.03796463  0.25954922 -0.07630433
C  0.14430204  0.89825578 -3.03739688
O -0.36776145  0.10433831 -1.92893867
C -1.07450499 -0.97941251 -2.40207048
C -1.82957289 -1.61317319 -1.24478025
O -0.85119071 -1.86229161 -0.28353261
C  0.19544094 -2.81233794 -0.59703362
C  1.54434201 -2.11763178 -0.51294525
O  1.55047272 -1.02857456  0.40609089
C  1.33151183 -1.5213975   1.76021699
C  1.04960686 -0.29541412  2.59642536
O -0.19899153  0.25434673  2.17304035
C -0.48197916  1.52873578  2.66870916
C -1.23451796  2.26509289  1.56633936
O -0.49762104  2.17730858  0.34558841
C 0.29774004 3.3307603  0.10788743
H  0.50404285  1.91039437 -2.74075975
H  0.759944    0.16167037 -3.5432154 
H -0.78699342  1.14471758 -3.61415983
H -0.44058633 -1.73511943 -2.99102885
H -1.86224904 -0.6842942  -3.18073666
H -2.54812927 -0.88682939 -0.85344677
H -2.27577589 -2.54332252 -1.49328809
H  0.09890329 -3.58644107  0.12064208
H -0.0475811  -3.25973349 -1.6225325 
H  1.84973673 -1.6811622  -1.45382521
H  2.31095054 -2.86776329 -0.22133532
H  2.36321757 -1.89076182  2.07515349
H  0.5952782  -2.36246869  1.82921674
H 1.85199605 0.45229598 2.63776906
H  0.92419717 -0.68725726  3.64600676
H 0.46974256 2.16977542 2.84108002
H -1.09488954  1.53397557  3.56423957
H -1.40498402  3.34216823  1.83978423
H -2.31433121  1.89523167  1.51448771
H -0.21295694  4.25689028  0.5696133 
H  0.32070634  3.5155447  -0.9961519 
H 1.32452013 3.21433481 0.53119145
