38

Li  1.09998217  0.09241817 -1.03377775
C -0.65516182  2.48447732 -1.24426835
O -0.31438497  1.14914904 -1.55531085
C -1.19990003  0.55875446 -2.49915435
C -1.18567583 -0.94351239 -2.14421298
O  0.19624801 -1.26708336 -1.94965934
C  0.55875756 -2.3972524  -1.17094146
C  2.10707418 -2.42130874 -0.91883633
O  2.55923854 -1.09842436 -0.5681309 
C  3.15246574 -0.83824089  0.74418381
C 2.55348788 0.51560469 1.25766674
O 1.12910751 0.4473159  0.97472686
C 0.26068442 0.83090818 2.07892294
C -1.16959876  0.27403237  1.87671661
O -2.10189992  1.31663233  1.55858291
C -3.49528561  1.06511755  1.97656294
H  0.17766427  2.94731    -0.64555698
H -0.82511846  3.0786132  -2.16451812
H -1.58607208  2.48391442 -0.61112613
H -0.79157919  0.64470986 -3.53214927
H -2.18109443  1.03464139 -2.48351758
H -1.78220596 -1.1527745  -1.21987271
H -1.64407667 -1.5426343  -2.98226101
H  0.12811464 -2.23877778 -0.16748046
H  0.37069999 -3.36795423 -1.70457644
H  2.64827693 -2.70165859 -1.90420999
H  2.3068329  -3.10962424 -0.08865666
H  4.24839202 -0.72572749  0.59372778
H  2.94843404 -1.75814285  1.34021956
H 3.0780541  1.31077543 0.66477917
H 2.71351573 0.67879405 2.35096206
H 0.13454914 1.97213296 2.18744617
H 0.73127583 0.33321475 2.97688526
H -1.5481727  -0.26485159  2.8163647 
H -1.1340804  -0.45359942  0.98710035
H -4.04850314  0.59685751  1.18741607
H -3.93488156  2.02382867  2.17395357
H -3.5051641   0.44236486  2.84200018
