38

Li -0.03567794  0.36815642 -0.01026759
C -1.99791183  2.28828696 -1.29599384
O -0.80988059  1.46746484 -1.42744982
C -0.27967694  1.2442436  -2.73873606
C -0.09489469 -0.30438046 -2.92141934
O  0.09105811 -1.02975846 -1.73391783
C  1.37309939 -1.61962896 -1.49609559
C  2.42086092 -0.6610173  -0.94905772
O  1.80772599 -0.08475996  0.18781963
C  2.46266202 -0.1143149   1.45565966
C 1.63658489 0.79349444 2.50782681
O 0.38364237 1.14462064 1.87324429
C -0.74926433  0.7582243   2.64011608
C -1.10406783 -0.68059161  2.34888219
O -1.58436765 -0.66431553  0.93090517
C -2.42743037 -1.81000128  0.67920766
H -2.25866812  2.34806936 -0.17674549
H -1.73814283  3.27937842 -1.62232417
H -2.93245431  1.91451768 -1.87567445
H  0.66732101  1.81024358 -2.86638411
H -0.96270826  1.59355227 -3.55962705
H -0.95381306 -0.66812843 -3.52023818
H  0.78940743 -0.39124831 -3.64869964
H  1.26492836 -2.35095996 -0.70124918
H  1.78863871 -2.16718145 -2.42207899
H  2.62400875  0.2565026  -1.64772054
H  3.33151392 -1.22211513 -0.66825775
H 3.5201857  0.30675929 1.3936834 
H  2.56231445 -1.18461213  1.753013  
H 2.14686912 1.73331313 2.76397586
H 1.43151002 0.28211456 3.45657717
H -1.62039905  1.35935014  2.36028701
H -0.57939318  0.86412851  3.71060423
H -1.99341993 -1.00711608  2.94794623
H -0.29009452 -1.42241712  2.39969121
H -1.98558513 -2.78957211  1.01496195
H -2.53584197 -1.89150803 -0.38593814
H -3.36863863 -1.74879353  1.24347393
