38

Li -4.17363159 -0.63151725 -6.66716939
C  4.41089391 -0.4612457   6.27329462
O  3.17290223 -0.23377892  5.73626238
C  3.06997099e+00 -1.78302122e-05  4.34569309e+00
C 2.01714605 1.10039421 4.11175784
O 2.05831561 1.68931751 2.84493018
C 1.20156098 1.10463956 1.88247961
C 0.44662702 2.19049812 1.11441429
O -0.61835914  1.60920219  0.34606864
C -0.25326251  1.05163504 -0.91193532
C -1.61885979  0.59595326 -1.40883004
O -1.50229761 -0.07273971 -2.74558462
C -2.68052325 -0.33326823 -3.41645547
C -2.20383005 -0.97194455 -4.70535373
O -3.30713789 -1.53574225 -5.38608604
C -3.4737369  -2.96834556 -5.51177669
H  4.98856608 -1.33316899  5.75484868
H 5.06603693 0.4589498  6.42598962
H  4.28618318 -0.78643687  7.34098134
H  2.84827905 -0.94775669  3.77917742
H 4.01699661 0.35738618 3.85272512
H 2.24272238 1.86567308 4.84564522
H 1.00043298 0.63388987 4.20781234
H 0.41939293 0.58571962 2.4411151 
H 1.79987214 0.4549428  1.16776561
H -2.40636292e-03  2.96122904e+00  1.77863060e+00
H 1.03896027 2.73769305 0.37565028
H  0.28733755  1.75747231 -1.61038649
H  0.36459981  0.13259064 -0.81605728
H -2.27433967  1.45466785 -1.48314606
H -2.0424972  -0.12041612 -0.66360273
H -3.45637391 -1.00941263 -2.90227726
H -3.30385716  0.59990621 -3.6503121 
H -1.53060375 -1.85486226 -4.52747601
H -1.80838777 -0.15322123 -5.3730381 
H -4.39112568 -3.16599127 -6.11213993
H -2.65260233 -3.27957181 -6.17972837
H -3.44296414 -3.48232248 -4.55388635
