38

Li 0.28497628 0.15914788 0.19728444
C 2.05065475 1.09244113 2.39313299
O 1.9515488  0.64890623 0.92748694
C  2.80025594  1.19663299 -0.07292991
C  2.1738928   2.4191029  -0.66467688
O  0.84779868  2.04936467 -1.02467131
C -0.09645315  3.12671475 -1.08492895
C -1.41394321  2.3746025  -1.31520203
O -1.67107194  1.73782365 -0.04899278
C -2.71210892  0.83227116  0.04616175
C -2.31078087 -0.23752238  1.07723078
O -1.13556039 -0.87151008  0.67797813
C -1.11674323 -2.25405729  0.85721419
C -0.10655989 -2.91571649  0.01254888
O -0.5736336  -4.20861957 -0.3692305 
C  0.13427325 -4.71123839 -1.55406522
H 1.27707802 1.85698462 2.61032953
H 3.11252078 1.33550437 2.59679339
H 1.7889386  0.11696028 2.85683898
H 3.85265181 1.46098664 0.32377342
H  2.99736476  0.42888212 -0.88607433
H  2.74692467  2.79042331 -1.5181036 
H 2.01886569 3.24301824 0.04412857
H -0.00509439  3.75415001 -0.1423471 
H  0.15012664  3.79607218 -1.96851797
H -2.24055945  3.07623766 -1.61038113
H -1.27883104  1.69156597 -2.17918714
H -3.02450426  0.34654777 -0.95600756
H -3.53912562  1.39789608  0.63212141
H -2.12643675  0.37624079  2.05331907
H -3.12965439 -0.97232679  1.30040126
H -1.06222458 -2.34346131  1.98152355
H -2.17457317 -2.572698    0.62382568
H  0.83113603 -3.03338089  0.57942921
H -0.00296679 -2.41918082 -0.96696667
H -0.32586599 -5.67227772 -1.68357453
H -0.17503892 -4.1955892  -2.46331341
H  1.20272306 -4.90089895 -1.28235114
