38

Li  0.11442408  0.05249121 -0.32827133
C  0.63596187  0.23268447 -3.288458  
O -0.05769466 -0.23146875 -2.10426095
C -1.08593687 -1.23529807 -2.41610677
C -2.10864059 -1.30285169 -1.1949066 
O -1.93976694 -0.18369706 -0.24339245
C -2.90335367  0.83731852  0.07457798
C -2.32729898  1.74216363  1.14337542
O -1.05559671  2.44971108  0.9707542 
C -0.12698996  2.21397443  2.07951318
C 1.33057856 2.1007003  1.60421815
O 1.49348216 1.05980707 0.62356505
C 2.62675001 0.19386584 0.68725483
C  2.23849368 -1.16995588  0.07814795
O  0.94840977 -1.65136343  0.61140596
C  1.18082106 -2.79223213  1.59376577
H  0.88368824 -0.54058668 -4.11075693
H  1.55131701  0.72543724 -2.9719628 
H  0.02433526  0.95987676 -3.78658844
H -1.5584306  -1.03115508 -3.41527029
H -0.5628847  -2.21531778 -2.4684839 
H -3.18765411 -1.24901584 -1.61214393
H -1.92940561 -2.26326057 -0.62856776
H -3.14930118  1.38740794 -0.86067344
H -3.91402578  0.49814511  0.51148045
H -3.10240503  2.57786701  1.29192132
H -2.13542837  1.15950921  2.02743763
H -0.43154056  1.19364359  2.56271347
H -0.09811778  3.05624538  2.76853388
H 1.56206273 3.14983288 1.20951782
H 1.90998229 1.85717618 2.55579202
H  2.88747234 -0.03558538  1.72226862
H 3.52039313 0.61168509 0.1972829 
H  3.01927738 -1.85112492  0.4537239 
H  2.07410755 -1.24497399 -1.01802462
H  0.35439169 -2.66591096  2.33422838
H  1.17629048 -3.8239315   1.18636562
H  2.1422328  -2.57181322  2.16002371
