38

Li -0.27867065 -6.16654755 -3.03202345
C  2.53298244 -5.00526393 -3.41816012
O  1.17657654 -4.9095154  -3.03597178
C  0.8112038  -3.56392247 -2.55511721
C -0.68635661 -3.65110277 -2.25146597
O -1.35711849 -2.46957295 -2.05435925
C -0.94301823 -1.73155815 -0.88193593
C -1.73151477 -0.38418833 -0.90458032
O -0.97515445  0.53775105 -0.16501077
C -1.65297269  1.7433138   0.15933487
C -0.89285267  2.25387392  1.39700488
O -1.43454878  3.52981885  1.68621933
C -1.26620357  3.92711538  3.02987037
C 0.10118157 4.52194419 3.28942392
O 1.04848279 3.50596186 3.24164213
C 2.38051264 3.9473797  3.04012441
H  2.78636362 -4.22482991 -4.09435979
H  2.73034372 -5.97150645 -3.92057751
H  3.19298996 -4.96284491 -2.57471785
H  1.47564828 -3.30682388 -1.67351441
H  1.00978694 -2.82789232 -3.33889126
H -1.1681577  -4.11274898 -3.12133577
H -0.88341953 -4.37037229 -1.3613261 
H -1.20748148 -2.34750874  0.05953263
H  0.13004387 -1.49340718 -0.97388751
H -2.75694745 -0.60982414 -0.47478879
H -1.92005389 -0.05772502 -2.01716711
H -2.65802906  1.4715909   0.56093821
H -1.78304634  2.44782117 -0.74045938
H -1.08257879  1.5722821   2.22657873
H 0.22309671 2.34132578 1.17328806
H -1.524337    3.05623636  3.68598067
H -2.03483233  4.70002682  3.23919498
H 0.09600612 5.05267914 4.31176846
H 0.24902968 5.29817959 2.49705031
H 3.09378194 3.33186875 3.58752166
H 2.64125172 3.94402522 1.98404932
H 2.55801214 4.98396078 3.42012733
