38

Li  0.09578375 -0.19988782  0.15426955
C  1.94239993 -0.11311742 -2.2666273 
O  1.26156776 -0.9583699  -1.3304835 
C  0.53884139 -1.99834555 -1.98597749
C -0.15765154 -2.80493982 -0.88158218
O -0.8432762  -1.88886045  0.04237268
C -2.27166108 -1.68043619  0.04642232
C -2.67188459 -0.38797647 -0.66742154
O -1.85397801  0.58692531 -0.02318745
C -1.77301427  1.82569176 -0.64554921
C -0.64638016  2.60316738  0.09471848
O  0.52664459  1.7757381  -0.08422779
C 1.59827799 2.14402423 0.86585232
C 1.3661512  1.37574914 2.23697642
O 0.98665527 0.04529682 1.88627051
C  1.20688492 -0.79712515  3.02128771
H  1.20432165  0.06708227 -3.05825771
H  2.81448586 -0.61735204 -2.75395396
H  2.14492943  0.86909863 -1.76507767
H -0.2841408  -1.61157948 -2.63328663
H  1.28001683 -2.63013644 -2.50954294
H -0.8992145  -3.50567243 -1.32159972
H  0.63127914 -3.2679124  -0.31963739
H -2.76279827 -2.54802322 -0.38045705
H -2.5389378  -1.53294597  1.1619196 
H -2.46113113 -0.37476146 -1.76389413
H -3.76354426 -0.09733365 -0.57010493
H -2.67250785  2.39522201 -0.66234004
H -1.5238665   1.75272894 -1.71203777
H -0.51246374  3.57393451 -0.38381334
H -0.92884588  2.62918316  1.14497324
H 1.75003009 3.26035089 1.03947234
H 2.57090081 1.83239848 0.45654204
H 0.4998782  1.8133864  2.80041689
H 2.2710264  1.40890974 2.85942722
H  2.30066987 -0.92203391  3.22160882
H  0.78856725 -0.25764545  3.84258737
H  0.78598427 -1.76443257  2.84394219
