38

Li -0.1273715  -6.22644005 -3.59684878
C  2.52829256 -4.90034767 -3.3758625 
O  1.15318973 -5.0142407  -3.14176487
C  0.71038621 -3.76456043 -2.58480301
C -0.79227109 -3.79752959 -2.25084397
O -1.40450284 -2.52127424 -2.13162064
C -0.66185142 -1.55722914 -1.38932288
C -1.53887484 -0.31146143 -1.1396522 
O -0.8657693   0.42150931 -0.13942118
C -1.6857962   1.54225445  0.32829744
C -0.96031947  2.20481474  1.53922095
O -1.58609079  3.47360584  1.85621437
C -1.3835339   3.91318176  3.22760388
C -0.01626522  4.56080694  3.48797072
O 0.98639952 3.56046372 3.45831696
C 2.30807205 3.94797519 3.1703876 
H  2.79470592 -4.04307083 -4.03904973
H  3.00519778 -5.86564122 -3.84958598
H  3.13569932 -4.77722797 -2.43960408
H  1.28147318 -3.62136754 -1.66855047
H  0.97863867 -2.90756024 -3.27436338
H -1.30153918 -4.26300042 -3.09578249
H -0.99244386 -4.42005035 -1.33567891
H -0.38454399 -1.86258993 -0.36622212
H  0.25238914 -1.20292941 -1.95871383
H -2.52127159 -0.70477809 -0.74360829
H -1.85294751  0.29122092 -2.05090875
H -2.73598843  1.15745732  0.49640663
H -1.78636136  2.36820991 -0.43893132
H -0.90877067  1.52935656  2.45109569
H 0.02382702 2.48845145 1.18112148
H -1.5383092   3.11290825  3.91593999
H -2.2176055   4.62376467  3.46062755
H -0.10549931  5.01691998  4.52962915
H 0.15950062 5.38659751 2.78300776
H 2.68519655 3.36787411 2.29338939
H 2.37135952 5.03099306 2.84826613
H 2.99359938 3.76293355 3.98364367
