38

Li -0.06443898  0.13310256 -4.63982349
C 1.36625479 2.2081811  7.31034598
O 0.52430567 1.4116419  6.50285804
C 1.01343541 0.66542233 5.44584695
C 0.8982472  1.56681887 4.24812737
O 0.98573457 0.77387479 3.10512178
C 0.4486409  1.34236658 1.9775854 
C 0.52169541 0.25980472 0.91136197
O  0.21845017  0.87825122 -0.38493957
C -0.1185442   0.07672    -1.40949132
C -1.58826956 -0.08699282 -2.01384739
O -1.29837655 -0.48003911 -3.48707042
C -2.05897169 -1.67429399 -3.77160773
C -1.39972152 -2.30646115 -5.09026324
O -0.60442587 -1.3088814  -5.67950856
C  0.53444857 -1.95068802 -6.46853252
H 1.82494033 3.14139173 6.85245293
H 0.81419875 2.60515156 8.16756219
H 2.18872389 1.49279881 7.60487317
H 2.08670665 0.29963357 5.54780848
H  0.30857306 -0.16857107  5.25217126
H 1.63812766 2.45339141 4.43954798
H -0.12991481  2.01701147  4.35694042
H 0.96986854 2.24079346 1.68867825
H -0.60251849  1.639604    2.11918293
H  1.507997   -0.21566555  0.81371665
H -0.13488353 -0.57717983  1.2864665 
H  0.22376048 -0.96396361 -1.31429174
H  0.45351094  0.55028344 -2.2545823 
H -2.20895213  0.79735545 -2.00948309
H -2.18628222 -0.94114913 -1.62708931
H -3.10753246 -1.32532463 -4.10034517
H -2.06207187 -2.33033057 -2.8821901 
H -0.8017944  -3.26866333 -4.8199615 
H -2.21103094 -2.60935187 -5.75976837
H  0.87635056 -1.24355399 -7.27545968
H -0.05124811 -2.81373081 -6.90694123
H  1.22500677 -2.2887581  -5.73545151
