38

Li  0.23032573 -0.01135794  0.17857895
C  1.46399593  0.16007495 -2.64304745
O  0.89264202 -0.62082746 -1.55506125
C  0.50637657 -1.94066417 -1.9911776 
C  0.06111184 -2.71562    -0.78975331
O -0.66805963 -1.90341973  0.1274042 
C -2.14231032 -1.78547148  0.04538689
C -2.43958255 -0.45445736 -0.69387286
O -1.61025918  0.54008055 -0.01149868
C -1.72052598  1.85172604 -0.50004713
C -0.65861295  2.65331934  0.20352862
O 0.53504942 1.79535719 0.22646091
C 1.57409864 2.16454106 1.13136617
C 1.47020457 1.22105674 2.27624   
O  1.31390047 -0.10596793  1.76123226
C  1.11624312 -1.02903589  2.82726166
H  0.7790039   0.63606018 -3.38293188
H  2.2240065  -0.46893148 -3.21370768
H  1.89701158  1.03888064 -2.15678364
H -0.30884806 -1.81187397 -2.73925787
H  1.26545176 -2.46728009 -2.58809208
H -0.49162499 -3.6117178  -1.11784609
H  0.99995339 -3.0121424  -0.22834077
H -2.62280292 -2.67942225 -0.52828756
H -2.52062703 -1.75598311  1.0613873 
H -2.25553464 -0.38478768 -1.78274237
H -3.53186272 -0.26822175 -0.47196387
H -2.74987545  2.30732859 -0.16492764
H -1.45609486  1.83499934 -1.63884851
H -0.42147116  3.63528417 -0.29865426
H -0.98260871  2.89086196  1.29205588
H 1.39540157 3.21267544 1.47965281
H 2.56804325 2.04184758 0.60194818
H 0.59098336 1.49768466 3.05649634
H 2.38492379 1.27698687 2.89690706
H  2.09185028 -1.26907441  3.29185445
H  0.52328209 -0.53270778  3.63502972
H  0.69684141 -1.92980064  2.40405113
