38

Li -0.28528192 -0.00240557 -0.51322783
C -2.90379866  1.92004679 -0.39083198
O -2.12841507  0.76933592 -0.05533111
C -2.79454411 -0.3036654   0.6216832 
C -2.62778502 -1.50955013 -0.28106489
O -1.1881587  -1.66000693 -0.42607442
C -0.76677293 -2.72870477 -1.27620207
C  0.26920799 -2.29941885 -2.3457629 
O  0.40521076 -0.88612755 -2.12497532
C  1.6586859  -0.34296716 -2.46188398
C  1.84461974  0.95324351 -1.71777996
O  1.23899334  0.9704852  -0.44096957
C 2.10124636 1.30497785 0.66355758
C 1.47024509 1.28084972 2.02525841
O 2.30916108 1.72140334 3.05993579
C 2.07140166 1.1018715  4.27775053
H -2.12672862  2.56831849 -0.85600173
H -3.75823128  1.64799549 -0.99374413
H -3.31965802  2.37515936  0.55530703
H -3.82830865 -0.01565563  0.91843061
H -2.22472315 -0.4666942   1.53512011
H -3.11736505 -2.44185481  0.04923536
H -3.00429391 -1.27186298 -1.2605424 
H -0.44659914 -3.56556886 -0.67313688
H -1.59688122 -2.98409352 -1.91705995
H -0.04870865 -2.43768851 -3.38420269
H  1.26857206 -2.83515895 -2.17973893
H  1.69894644 -0.25651348 -3.58286715
H  2.37990143 -1.0596294  -2.11255138
H  1.45001877  1.80318871 -2.35891299
H  2.94393411  1.14502454 -1.66678704
H 2.69578489 2.23479799 0.57206993
H 2.89976461 0.39078635 0.68138144
H 1.13087521 0.24559205 2.12100478
H 0.53182918 1.85590742 1.93945104
H 1.16326657 1.56061396 4.89766968
H 2.94711701 1.10722019 4.88970874
H 1.68747192 0.11074836 4.21208507
