38

Li -1.51105518 -6.6473346  -3.67568355
C -0.19798703 -7.41608278 -1.24362913
O -0.87987049 -6.29683273 -1.98214064
C -1.12900311 -5.17542872 -1.06992759
C  0.08560671 -4.21742974 -0.9185598 
O -0.27091435 -3.27640002  0.03697527
C  0.69114889 -2.14811686  0.27939257
C  0.01215521 -0.90803017 -0.17987288
O  0.88323622  0.15136979 -0.02460975
C  0.50703005  1.43235421 -0.59464113
C 1.05899756 2.4552034  0.38384773
O  0.9035329   3.74290478 -0.14310863
C 1.14376395 4.85438372 0.7184045 
C -0.20553603  5.57675695  1.0101402 
O -6.63222498e-04  6.86341144e+00  1.69848110e+00
C -1.10065007  7.51933183  2.38635966
H  0.77234271 -6.90678844 -0.99085425
H -0.79727789 -7.68192813 -0.39982739
H  0.05041705 -8.3074103  -1.96798451
H -1.99959216 -4.65525697 -1.45747913
H -1.49755212 -5.61352829 -0.11568216
H  0.12198339 -3.73968612 -1.94637139
H  1.05086284 -4.82769897 -0.69262   
H  1.54041143 -2.30764412 -0.42428813
H  0.97535892 -2.17469863  1.34278387
H -0.19524439 -1.00094789 -1.30521585
H -0.98338889 -0.79944221  0.24112234
H  1.04975785  1.59355943 -1.5397732 
H -0.58015776  1.45477435 -0.80083262
H 0.46905766 2.27526802 1.38158415
H 2.10560306 2.2646516  0.57971659
H 1.97366787 5.52897529 0.30945838
H 1.52495845 4.40000801 1.70042714
H -0.83659211  4.969354    1.67813294
H -0.77246783  5.75809487  0.03273045
H -1.36804947  7.01357518  3.3222193 
H -0.60226569  8.48455916  2.63440567
H -1.99162494  7.76214968  1.73691988
