38

Li -2.14663791 -3.70070719 -6.35220257
C 3.84971089 1.66708428 6.54623093
O 2.74111227 2.55239915 6.15799887
C 1.74464451 1.89804667 5.3092124 
C 2.2434789  1.56436759 3.84541835
O 1.03193396 0.96640841 3.18838616
C 1.25431018 0.78624255 1.76751437
C -0.04163773  0.23624394  1.25851984
O  0.04835047  0.29147601 -0.15265922
C -1.07068297 -0.28552891 -0.85519848
C -0.51374791 -0.33808217 -2.32735109
O -1.5102532  -0.81136963 -3.27300376
C -1.03432077 -0.74245304 -4.61787835
C -2.17483193 -1.04535615 -5.54001136
O -2.75936823 -2.38786463 -5.35029358
C -3.61316875 -2.51114906 -4.20900205
H 4.4795798  1.46168113 5.60780971
H 4.3224177  2.27787698 7.33065945
H 3.43076312 0.76615845 7.02144857
H 1.26357111 1.03868434 5.8264418 
H 0.85820713 2.59770652 5.30500004
H 3.04039576 0.88009339 3.82984148
H 2.41832081 2.4767394  3.31361134
H 2.04994619 0.04184601 1.59601921
H 1.44801762 1.71699898 1.19000005
H -0.35465514 -0.78094284  1.65786608
H -0.91628896  0.82420085  1.5998172 
H -1.98721136  0.37040548 -0.87001833
H -1.29881835 -1.33047544 -0.49718117
H  0.43895099 -0.9840901  -2.25958817
H -0.18915596  0.63832018 -2.59857476
H -0.09744183 -1.34535493 -4.83949862
H -0.74102744  0.23490411 -4.91764998
H -2.99682812 -0.30877451 -5.54324481
H -1.68411801 -1.04681656 -6.52390647
H -4.16669062 -3.48822959 -4.28870904
H -4.28621007 -1.63889175 -4.08662049
H -3.08061615 -2.54179794 -3.24920356
