38

Li -6.12980645 -3.91712442 -3.3724231 
C -5.80670932 -0.95554281 -3.185343  
O -5.31476806 -2.32624095 -3.14199148
C -3.87958572 -2.37478397 -3.14419652
C -3.20965442 -2.09491726 -1.76213327
O -2.41480282 -0.96188311 -1.83319992
C -1.82728653 -0.85786428 -0.55040072
C -0.65015475  0.21527573 -0.65756753
O -0.13846354  0.54590249  0.59056674
C 0.96621073 1.45081964 0.55656125
C 1.15515253 2.14457469 1.91797895
O 2.43165954 2.57281353 2.18985064
C 3.29588701 1.49553265 2.69963837
C 4.71757308 2.02649441 2.60038697
O 5.55511677 1.15080133 3.36944135
C 6.5920232  0.41654171 2.73098105
H -6.26949061 -0.8051786  -2.20223801
H -6.46249898 -0.88787364 -4.03491121
H -4.92056063 -0.31403416 -3.20460282
H -3.59084803 -3.29572711 -3.61035534
H -3.49109028 -1.58477384 -3.81847395
H -2.50760404 -2.99628977 -1.52961165
H -3.97909958 -2.14527276 -0.94479073
H -1.50460147 -1.9007842  -0.14685187
H -2.47695315 -0.49593272  0.29339746
H  0.16698945 -0.22359552 -1.32113863
H -1.02323738  1.05884878 -1.35770201
H 1.9265871  0.96206945 0.27327219
H  0.83972843  2.18633989 -0.26361076
H 0.37268717 3.00375667 1.93532616
H 0.8078194  1.36178624 2.67337572
H 2.98373386 1.2542306  3.7281962 
H 3.23990451 0.54645382 2.18325711
H 4.7366317  3.03893189 3.03614389
H 5.10358528 2.1041479  1.56340339
H 7.51816197 1.04612202 2.46771605
H  6.25853591 -0.0836451   1.8147612 
H  6.92922809 -0.35997921  3.45728783
