38

Li  1.43231767 -3.38883016  0.65246843
C  3.99124604 -5.32894552  1.51072492
O  3.24818382 -4.63683993  0.48400308
C  4.15804121 -3.57150729  0.13791441
C  3.60835414 -2.8852282  -1.05506417
O  2.1874105  -2.42648206 -0.84985247
C  1.88100235 -1.00855208 -0.96878794
C  0.7154627  -0.60259414 -0.06929437
O  0.40452343  0.80193261 -0.16582487
C -0.77368248  1.18801652  0.7107651 
C -1.99082338  1.74036154 -0.1591585 
O -3.25744583  1.51070606  0.45729352
C -3.5795438   2.72398263  1.11848636
C -4.3929212   3.74468096  0.29536584
O -3.69409462  3.97177048 -0.90948367
C -4.24682973  4.88122568 -1.84739184
H  4.91047315 -4.74579601  1.62111079
H  4.27660178 -6.41441431  1.38230963
H  3.36272534 -5.33002809  2.4470839 
H  5.15936143 -3.97603119  0.06637616
H  4.26145915 -2.97674914  1.09299969
H  4.29226498 -1.99704632 -1.2210276 
H  3.61303022 -3.52333263 -1.95344989
H  2.73873865 -0.38416558 -0.68354176
H  1.70417156 -0.77117397 -2.03304522
H -0.18477443 -1.21920724 -0.26877255
H  1.06872813 -0.90514809  0.99465648
H -0.93138717  0.29358442  1.40689302
H -0.39879426  2.06157843  1.34416554
H -2.01554821  1.23184116 -1.12727141
H -1.83901356  2.82198186 -0.35321074
H -2.61975661  3.22215095  1.44506907
H -4.15456546  2.47071543  2.0172054 
H -4.46326462  4.62141201  0.87740772
H -5.40447461  3.31426192  0.08060659
H -5.17882178  4.64576814 -2.39899321
H -3.44955145  4.93259268 -2.64395394
H -4.43880303  5.9135085  -1.4347815 
