38

Li  0.26046573 -1.5976256  -1.58009998
C  0.77096225  4.26506973 -1.19369962
O  1.56396987  3.10832053 -1.45925239
C  0.93535783  1.84070718 -1.19760175
C  1.84804583  0.74474449 -1.88338306
O  1.60030811 -0.57932208 -1.26142031
C  2.17869958 -0.80393346  0.02811755
C  2.12209277 -2.2741323   0.16733016
O  0.86978183 -2.66272331  0.73267942
C -0.0903524  -3.61618434  0.33489689
C -1.48179949 -2.95946326 -0.08600982
O -1.42920903 -1.52754345 -0.13396861
C -1.93616905 -0.69889501  0.94652584
C -2.34735181  0.70502484  0.41249161
O -1.67435834  1.81644313  1.03222014
C -1.74020534  1.84769747  2.453844  
H  1.11995889  5.02279123 -1.92226393
H  0.85539159  4.53440785 -0.16264159
H -0.23757079  4.03932405 -1.49184813
H  0.96113358  1.64522065 -0.10968658
H -0.07616662  1.62686158 -1.57076236
H  1.56040783  0.57000999 -2.96343587
H  2.92691622  1.02424227 -1.90600234
H  3.25624476 -0.50559449  0.09109766
H  1.51217321 -0.3466643   0.7775973 
H  2.42181457 -2.83496064 -0.7959827 
H  2.88837076 -2.58108871  0.90973523
H -0.27525342 -4.26080228  1.22691193
H  0.36448614 -4.27256366 -0.42071001
H -1.74773115 -3.35892365 -1.05473745
H -2.25934415 -3.29398896  0.66405306
H -1.13128126 -0.62158792  1.734586  
H -2.73138674 -1.25466614  1.52606535
H -3.45866635  0.90598502  0.47281045
H -2.14380894  0.64504042 -0.71873181
H -2.81258245  2.0346535   2.75977465
H -1.27639237  0.95188169  2.88056524
H -1.16695164  2.72223794  2.76093579
