38

Li 0.65960715 0.08987504 0.35949424
C  0.34451592  3.50684959 -0.44435878
O 0.37884321 2.40209224 0.38974461
C -0.34009548  2.59836063  1.59430341
C 0.09715474 1.63795746 2.71301669
O 0.02717262 0.33375477 2.01155381
C  1.18695699 -0.43869751  2.59284797
C  0.89699177 -1.9635942   2.2174623 
O  1.08613231 -2.0638368   0.73204108
C  0.23571563 -2.99254343  0.16920877
C -1.07189184 -2.31099974  0.16839763
O -0.8792534  -1.00330301 -0.37778479
C -1.72587507 -0.6657712  -1.45293599
C -1.08204197 -0.93734661 -2.95321221
O -0.51931749  0.27074522 -3.45366359
C  0.92233619  0.19130021 -3.74081381
H -0.69832792  4.03515499 -0.31480542
H  0.59227086  3.10245153 -1.42930498
H 1.11894586 4.27638553 0.01584958
H -0.15510746  3.70534975  1.97636281
H -1.42890261  2.18500576  1.31058268
H -0.52890414  1.77463258  3.66424226
H 1.19879081 1.83581961 2.95610475
H  1.10550889 -0.45652072  3.71620976
H 2.0642438  0.0849701  1.98797179
H  1.68665116 -2.58056519  2.74598977
H -0.18515038 -2.1651816   2.59271526
H  0.6924426  -3.0432469  -0.88550137
H  0.38025307 -3.97876605  0.62277189
H -1.82508684 -2.74269443 -0.43905151
H -1.4665199  -2.01484431  1.18917589
H -2.80265844 -0.89294153 -1.17631794
H -1.79519014  0.45799105 -1.47656206
H -1.8134973  -1.38554854 -3.73926633
H -0.23060691 -1.64365991 -2.68073049
H  1.22279589  1.23543943 -3.4644665 
H  1.24102329 -0.09539781 -4.77575928
H  1.41007454 -0.34867598 -2.92151191
