38

Li -0.05630922  0.10569205 -0.01177721
C  2.34644717  1.61980831 -1.05587139
O 1.68949742 1.05969958 0.04133167
C 2.42630402 0.77140371 1.22411925
C 1.48746144 0.52866747 2.3563979 
O  0.54945293 -0.52159621  1.9444992 
C  1.07490714 -1.86712135  1.95124188
C  0.19218911 -2.70678502  1.06832723
O -0.31548224 -1.90127279  0.01184319
C -0.47191567 -2.3658174  -1.33136001
C -1.30725606 -1.25770098 -2.12161023
O -0.65586809  0.00288303 -1.97720941
C -1.44533199  1.13523856 -2.27293558
C -2.31171781  1.54392696 -1.07591922
O -1.38292112  1.48154704 -0.01180822
C -2.04631522  1.77209606  1.18591706
H  1.66741001  1.56643003 -1.91973522
H  3.30534132  1.10487419 -1.34454872
H  2.53056852  2.65636145 -0.70614475
H  3.01620261 -0.17921883  1.13110394
H 3.28334192 1.51247773 1.47408224
H 1.93531169 0.23184135 3.39507386
H 0.93952607 1.4163289  2.58719596
H  2.09893976 -1.97322704  1.56449012
H  1.12796114 -2.08783971  3.07942116
H  0.60954198 -3.65497118  0.65457189
H -0.74504581 -3.02082884  1.63161763
H -0.92389397 -3.4119203  -1.43198744
H  0.54367472 -2.58180279 -1.71852467
H -1.48467615 -1.44355433 -3.1694498 
H -2.33280054 -1.30754278 -1.65915964
H -2.12483896  0.82849962 -3.08311239
H -0.74224659  1.9618095  -2.51259427
H -3.14074124  0.81124539 -0.97215875
H -2.73045334  2.50558873 -1.34339267
H -2.04290217  2.86035609  1.34243568
H -3.11683755  1.46870914  1.07944043
H -1.44652525  1.33571467  1.99618928
