38

Li -3.99806231 -1.34315719  0.01910518
C 2.95534806 5.4432448  1.53615535
O 2.59785727 4.06986222 1.60669618
C 3.26420348 3.3441118  0.53789724
C 3.17276514 1.85942824 0.79051845
O 2.00466642 1.243941   0.21964562
C 0.87908168 1.43312703 1.00114167
C -0.31665089  1.31178402  0.07865072
O -0.58229336 -0.0498532  -0.21977093
C  0.20635471 -0.56713088 -1.31534891
C  0.58076439 -1.99243425 -1.034839  
O -0.32685972 -2.88658163 -0.34224876
C -1.59037626 -3.06053381 -0.9288042 
C -2.66965507 -3.56876901  0.09693801
O -4.01727665 -3.1313459  -0.2449529 
C -4.87318084 -4.18396938 -0.80206245
H 2.38828634 5.99589163 2.29799355
H 2.55067929 5.90865956 0.62564685
H 4.05985545 5.61386476 1.60212962
H  2.80496294  3.61881074 -0.47353287
H 4.39217543 3.4776953  0.51921957
H 4.04116246 1.35462794 0.27875365
H 3.20649999 1.61381873 1.88859597
H 0.95349932 2.45060442 1.47334552
H 0.70345123 0.69340942 1.79987548
H -1.21004512  1.72598784  0.60528199
H -0.34640962  1.8217856  -0.84534694
H  1.16554581  0.07874664 -1.52669181
H -0.40597753 -0.48850657 -2.30388381
H  1.49208941 -2.02368053 -0.36642444
H  0.8470984  -2.55001035 -1.97576858
H -1.52005814 -3.78929248 -1.81406718
H -1.88932975 -2.07193617 -1.23703215
H -2.64114069e+00 -4.68990741e+00  2.42627481e-05
H -2.50725274 -3.24467496  1.17738259
H -4.39083191 -4.66616886 -1.69753459
H -5.90946043 -3.78123376 -1.00035865
H -5.07148618 -4.97021533 -0.02632931
