38

Li -0.23104082 -2.89440456 -4.03145723
C -0.1993917  -0.39227561 -5.8459226 
O -0.75270329 -1.19707892 -4.84304846
C -0.45759654 -0.41742642 -3.60215049
C -1.00671033 -1.0726315  -2.39978338
O -0.41413377 -2.42255852 -2.30715409
C -0.96797923 -3.15854895 -1.12895731
C -0.19577869 -2.99659305  0.17860029
O -0.4651476  -1.75391719  0.71199667
C  0.66353179 -1.08016788  1.2963096 
C 0.06176507 0.03999452 2.12681127
O 0.88988051 0.20396152 3.26085717
C 0.3712805  1.15037943 4.21741304
C 1.0118445  2.57981264 3.95515127
O 0.21135902 3.33836055 3.02186941
C 0.5903229  4.70790872 3.02995516
H -1.00386786  0.30804456 -6.24541761
H  0.16066892 -1.00821903 -6.71618026
H  0.67749407  0.25202941 -5.45045541
H -0.84512698  0.62211376 -3.68674785
H  0.65496393 -0.29878726 -3.45669824
H -2.1280463  -1.11517104 -2.59639413
H -0.81298382 -0.41485987 -1.54792629
H -1.03711498 -4.21120344 -1.54499776
H -2.01525303 -2.76811336 -0.98515976
H  0.93136276 -3.07394619  0.04051351
H -0.49645164 -3.82125896  0.87544711
H  1.21691272 -1.74455324  1.98798126
H  1.42575619 -0.76344657  0.49258189
H -1.00380183 -0.3284535   2.41581532
H -0.06752312  0.99396916  1.48773217
H -0.69825987  1.2886878   4.21590435
H 0.66184665 0.7655944  5.21317448
H 2.08573866 2.33673703 3.66720303
H 0.9985794  3.0774772  4.96763672
H 1.72005343 4.73907894 2.91030004
H 0.41255388 5.17099068 4.03977754
H 0.05299651 5.35847471 2.27541957
