38

Li  0.10623045 -0.64843126 -1.96202311
C -0.53003699  1.9343004  -2.37654637
O -1.15848415  0.68474605 -2.51886293
C -2.38903176  0.40973908 -1.83048097
C -2.63671622 -1.02514088 -2.10431129
O -1.36318811 -1.70986007 -1.75958543
C -1.36953689 -2.63103019 -0.61500485
C  0.15659141 -2.86441657 -0.27508048
O  0.80611459 -1.57290658 -0.58894182
C  2.08319874 -1.52689669  0.10124763
C  1.78910944 -0.95551556  1.46860353
O  2.90279182 -0.03839224  1.81859537
C 2.45546584 1.25998054 2.27902393
C 1.59080285 2.13598102 1.3569248 
O 0.2354714  1.62087161 1.38590989
C -0.71624794  2.1551344   2.36219544
H -1.11005196  2.80754664 -2.89011636
H  0.54248453  1.82276273 -2.7975345 
H -0.45590353  2.33240552 -1.35010821
H -3.26015174  1.02973273 -2.16003363
H -2.18168773  0.70303227 -0.75584735
H -2.65021288 -1.19422305 -3.21144749
H -3.51577134 -1.50832773 -1.71542167
H -1.9955874  -3.57557312 -0.81159587
H -1.79513073 -2.19076835  0.33847246
H  0.5507626  -3.65539322 -0.91813044
H  0.30794267 -3.08333468  0.85782051
H  2.52996948 -2.48607187  0.09141844
H  2.69250661 -0.81006019 -0.48763734
H  1.73797132 -1.69404444  2.3002618 
H  0.82244874 -0.45607101  1.3668371 
H 1.86663982 0.95877611 3.21314177
H 3.35843913 1.80256506 2.60520674
H 1.90376792 2.0198545  0.28066466
H 1.59040118 3.23903152 1.60600845
H -1.17614086  3.08961543  1.99738309
H -0.2114307   2.23059284  3.3366389 
H -1.51379962  1.38978926  2.3623556 
