38

Li -5.69464553 -1.90064178 -4.48707312
C 4.50876285 3.29321582 4.74048992
O 3.61127859 2.79962505 3.78176683
C 3.81851106 1.413797   3.64896117
C 2.79581173 0.87315439 2.62397192
O  2.7752073  -0.49884228  2.7050913 
C  2.35626438 -1.0820536   1.4840067 
C  0.81549574 -0.98853443  1.25489023
O  0.60505531 -1.61100732 -0.0373336 
C -0.52332883 -1.31873319 -0.7816438 
C -0.6781586  -2.22776004 -1.99548375
O -1.53356112 -1.68083787 -3.0117187 
C -2.79797127 -1.09711513 -2.71851406
C -3.33659916 -0.51088465 -4.09814952
O -4.81485751 -0.34652932 -4.09818261
C -5.17698721  0.90178145 -3.38020769
H 4.60256751 4.39796734 4.62567503
H 5.48942839 2.86873523 4.66533835
H 4.19229613 3.0880042  5.84954307
H 4.88016002 1.24345377 3.3420012 
H 3.71109103 0.84524134 4.61754206
H 3.0710244  1.19709143 1.54481225
H 1.78498187 1.29591024 2.83212268
H  2.64053945 -2.15124066  1.68082941
H  2.89532312 -0.66376519  0.61500082
H  0.16241972 -1.60062857  1.93378657
H 0.46334347 0.07967501 1.27171123
H -1.38069522 -1.36717201 -0.04027777
H -0.35875609 -0.29770857 -1.22652638
H  0.29325431 -2.32860852 -2.45998554
H -1.02587719 -3.23120095 -1.74356506
H -3.50116667 -1.86754641 -2.30675778
H -2.82473413 -0.2126094  -2.03057359
H -3.11350481 -1.2805345  -4.90900844
H -2.81695353  0.43118763 -4.25653333
H -4.74716607  1.76783376 -3.86330619
H -4.85372955  0.81598698 -2.35688688
H -6.29412389  0.95129372 -3.41581291
