38

Li -2.00326624  1.17961377 -3.87800823
C  5.04460876 -0.57538484  5.93710535
O  4.5556172  -1.28765225  4.81634099
C  3.92442051 -0.44752391  3.89681083
C  3.66682754 -1.39409524  2.68238375
O  3.1725128  -0.77621003  1.47603284
C  1.8769799  -0.18795095  1.52611924
C 1.63715299 0.22003393 0.00969291
O  0.20090293  0.45983062 -0.20150468
C -0.4380669  -0.06711927 -1.31686399
C -1.91171622 -0.46370589 -1.02368528
O -2.61200936 -0.06461197 -2.28242046
C -3.88279077 -0.62757135 -2.59329422
C -4.59865592  0.1550593  -3.72559307
O -3.91015327  1.26074003 -4.27320292
C -4.54005706  2.52653555 -4.58999602
H 5.78315934 0.15977341 5.57246516
H  5.54383779 -1.27332043  6.60403264
H  4.1801574  -0.20482026  6.49315379
H  2.9630534  -0.07359062  4.27953013
H 4.56710382 0.4710225  3.64366064
H  4.653472   -1.77795412  2.40758103
H  2.95194538 -2.14882075  3.05128079
H  1.02956949 -0.79162729  1.80052387
H 1.79679965 0.75453666 2.13971123
H  2.01195048 -0.62899582 -0.57748963
H  2.18306036  1.11427445 -0.30228755
H  0.0142545  -1.00383994 -1.74624495
H -0.47957008  0.64778408 -2.14647571
H -2.03884001 -1.56759377 -0.95198282
H -2.36247947  0.04511145 -0.16466616
H -4.53827397 -0.40652386 -1.70807963
H -3.73744282 -1.68726537 -2.79026721
H -5.54067263  0.51881523 -3.2905514 
H -4.91518387 -0.43698452 -4.58285467
H -5.53830114  2.34688443 -5.1048507 
H -4.73962198  3.07118832 -3.6791463 
H -3.97028453  2.96195871 -5.40695962
