38

Li  0.03604431  0.38054906 -0.12103922
C -0.37787559 -0.51294298 -2.92597843
O  0.36995633  0.3097057  -2.06998973
C  0.32705248  1.81698039 -2.32043214
C -0.83399594  2.57342868 -1.76640991
O -1.08592084  2.03053838 -0.3756356 
C -1.25675084  2.93911727  0.74055344
C -0.86640415  2.31515414  2.02562813
O 0.50165206 2.0094315  1.87447997
C 1.13824266 1.0096542  2.66950574
C 2.02102354 0.0999763  1.87465886
O  1.17789156 -0.66270049  0.95083931
C  1.44530978 -2.06588563  0.94806972
C  0.55863462 -2.96965254  0.06578109
O -0.78654798 -3.08544235  0.49731496
C -1.6443785  -3.81442247 -0.36545317
H -0.05740455 -0.5891817  -4.01209355
H -1.49009492 -0.37460454 -2.92453051
H -0.13127093 -1.42039713 -2.4479958 
H  1.28271475  2.03855317 -1.82687763
H  0.44658792  1.92294835 -3.48471967
H -0.51570542  3.62454234 -1.56013672
H -1.75711886  2.37555904 -2.25185987
H -0.89494139  3.97370725  0.66603763
H -2.37799087  3.07500419  0.96348966
H -1.58296248  1.45510507  2.25867546
H -0.98396075  3.08599461  2.85429184
H 0.38093481 0.38667861 3.15948266
H 1.83446022 1.38531283 3.43462966
H 2.78870167 0.62235102 1.30389659
H  2.55697684 -0.66197929  2.58424415
H  1.16427359 -2.50169481  1.96222603
H  2.44447499 -2.29455442  0.50409276
H  1.01610635 -3.94599179  0.02339511
H  0.70049676 -2.46778561 -0.9487721 
H -1.26856717 -4.86781465 -0.50219557
H -2.71146607 -3.78357234 -0.02503732
H -1.56817797 -3.41166935 -1.43213582
