38

Li 0.08599183 0.45728532 0.02352405
C  1.58407549 -0.97329274  2.12148611
O  0.35282566 -1.01418085  1.44083094
C -0.06354543 -2.41670852  1.30867001
C -1.59266254 -2.42059306  1.07939793
O -1.99756245 -1.55927065  0.02864088
C -1.74575124 -2.06004354 -1.27281165
C -0.33377757 -1.82965812 -1.83213633
O  0.02461104 -0.47793044 -1.59065647
C  1.33531523 -0.25832962 -2.17179811
C  1.51388017  1.25338063 -2.28524613
O  1.15567171  1.71914887 -0.99497378
C  0.39124957  2.93041462 -0.96250896
C -0.00782727  3.25989695  0.48526431
O -0.51513488  1.99449977  1.10900502
C -1.23870404  2.18653633  2.26410495
H 1.7187933  0.07895475 2.33870041
H  2.39571984 -1.29708102  1.40728502
H  1.51575109 -1.59381711  3.08902635
H  0.44837701 -2.85945861  0.40824739
H  0.15069186 -3.00494686  2.24780452
H -1.88562854 -3.52161528  0.94218422
H -2.10553402 -2.0524585   1.9262771 
H -1.92489403 -3.15487158 -1.26258091
H -2.48803586 -1.55358496 -1.87858476
H  0.41922888 -2.48678525 -1.35218859
H -0.37499317 -2.08028669 -2.95700622
H  1.47471018 -0.69698526 -3.15030233
H  2.10327191 -0.69887424 -1.5368881 
H  2.53538799  1.49071601 -2.52762016
H  0.808471    1.69092038 -3.03900577
H -0.58631673  2.84280557 -1.53598797
H  1.00096141  3.82539066 -1.35678004
H -0.7607432   4.06361704  0.44621388
H 0.90206201 3.55307281 1.10771696
H -0.86105953  3.04871556  2.93289007
H -2.32114421  2.32585895  2.09008878
H -1.11373247  1.28955868  2.90971735
