38

Li  0.0903936  -0.45370601 -0.19308287
C  2.54915    -2.01933242 -0.91056939
O  2.13792769 -0.67253461 -0.43565982
C  2.87620716 -0.06621854  0.62253441
C 2.78180803 1.43859523 0.28155674
O 1.55681524 1.9404411  0.6612611 
C  0.88274023  2.94729437 -0.16206121
C -0.51919649  2.72585176  0.35514069
O -0.91410588  1.31208885  0.46239384
C -0.59310231  0.68681601  1.79562083
C -1.56991971 -0.52209417  2.03554785
O -1.27997189 -1.68626215  1.21754598
C -2.40270162 -2.17805068  0.43804307
C -2.83146787 -1.11750527 -0.58920506
O -1.81004199 -0.53701083 -1.41912346
C -1.56465882 -1.0639104  -2.70012206
H  2.08126575 -2.8764242  -0.39442358
H  3.66208467 -2.03774357 -0.81795399
H  2.37694599 -1.98802407 -2.01619326
H  2.48461026 -0.31129926  1.63830694
H  3.92302085 -0.4057351   0.4779786 
H 3.63166299 2.06569935 0.72188685
H  2.82856802  1.52564655 -0.85609478
H 1.13501706 3.99648108 0.02237947
H  1.15385418  2.85293171 -1.19566228
H -1.27318013  3.34092244 -0.18999608
H -0.50483224  3.13631524  1.41191594
H -0.45967248  1.45939664  2.5879827 
H 0.42494012 0.31422334 1.58783534
H -1.43054637 -0.79232836  3.11265732
H -2.61228642 -0.22535135  1.84985342
H -3.2563685  -2.30593948  1.17092068
H -2.13359074 -3.22281663  0.0719377 
H -3.35322396 -0.31893624 -0.08869393
H -3.59314989 -1.51326683 -1.33309187
H -2.33889368 -0.70105951 -3.42372518
H -0.61922717 -0.57094097 -3.10015881
H -1.5168737  -2.156213   -2.69748183
