38

Li -0.06521209  0.17820676 -0.07282717
C -3.21804955 -0.25228224 -1.06995861
O -2.20876949  0.19132635 -0.05952774
C -2.65962566  0.28989627  1.27362952
C -1.63290736  1.04718943  2.11245835
O -0.2744071   0.43002286  1.940589  
C -0.132217   -0.93581277  2.50594086
C  1.03571327 -1.64948452  1.80614719
O  0.68362154 -1.6622799   0.41501137
C  1.42217466 -2.54929896 -0.34972011
C  2.15901928 -1.80373885 -1.4326604 
O  1.37301689 -0.61908289 -1.89982951
C  2.25997924  0.4676145  -1.76618947
C  1.7582684   1.80877635 -1.97689851
O  0.92253049  1.85689184 -0.78953862
C -0.08100422  2.81415934 -0.87602603
H -4.18298056  0.23174372 -0.72174153
H -3.24731948 -1.37003112 -1.13179672
H -2.97450946  0.16132954 -2.05021597
H -3.66824964  0.86844853  1.22645364
H -2.84319199 -0.71824029  1.70560574
H -1.89229738  1.01482563  3.20981647
H -1.41241666  2.06744662  1.76022953
H -1.05068705 -1.56925477  2.29041237
H  0.10856129 -0.92897465  3.63871152
H  1.99551241 -1.21867975  2.05094943
H  0.94172327 -2.65396605  2.24487521
H  2.24428517 -2.97938388  0.25289777
H  0.66927824 -3.27524366 -0.65452695
H  3.09882557 -1.4120609  -1.08389549
H  2.4250006  -2.43337277 -2.32560004
H  2.51528962  0.57096331 -0.65810392
H  3.27354262  0.23786495 -2.20090348
H  1.15363492  1.96022622 -2.89071646
H  2.5676788   2.5691486  -1.80429772
H -0.75776064  2.61312235 -1.77441612
H  0.33734372  3.8533625  -0.91084879
H -0.64339468  2.7986223   0.06651139
