38

Li 0.08669466 0.18684672 0.10138263
C  3.07984309  1.04324183 -0.24412886
O 1.78635309 1.34505999 0.40593236
C 1.74178682 2.68688643 0.89163763
C 0.47022614 2.64758378 1.75648467
O -0.52941451  2.07070283  0.85369682
C -1.78431814  1.84318084  1.48382905
C -2.5511127   1.05523602  0.51266567
O -1.79916888 -0.13093353  0.12717941
C -2.67475883 -1.07375475 -0.4625312 
C -2.02311827 -2.24935758 -1.11300507
O -1.37368221 -1.98461196 -2.37137272
C -0.06929586 -1.36085362 -2.39021102
C  0.98285678 -2.02036848 -1.4867562 
O  0.77994761 -1.49705531 -0.18403547
C  1.51681981 -2.20399249  0.80749343
H  3.08307099 -0.0890209  -0.49294004
H 3.99382349 1.23983457 0.41959429
H  3.1764419   1.62444061 -1.1872318 
H 2.63786084 2.98646361 1.45356508
H 1.65786321 3.30447285 0.05065517
H 0.05608163 3.60074506 2.09192376
H 0.60729515 1.91373168 2.66998026
H -1.58793477  1.29028612  2.41448426
H -2.26461271  2.83396767  1.74643201
H -3.56236021  0.8166173   0.91183456
H -2.80173077  1.56776298 -0.41371415
H -3.26285151 -0.58495926 -1.3019894 
H -3.35097055 -1.4720225   0.33514804
H -1.34496959 -2.76976234 -0.4122488 
H -2.8374091  -2.97339549 -1.35493385
H  0.27337681 -1.44507922 -3.4120839 
H -0.08308424 -0.24373546 -2.16919518
H  2.00966487 -1.83409255 -1.86334219
H  0.72306239 -3.08864443 -1.46089461
H  1.41126812 -1.64016008  1.77180151
H  1.17071085 -3.29017576  0.96074862
H  2.65574457 -2.10508517  0.55414523
