38

Li 0.08361773 0.21127991 0.10645331
C -2.66333728  2.31804978  0.75937387
O -1.99245252  1.02245678  0.57016086
C -2.77546129  0.10716441 -0.27471668
C -2.15815709 -1.27597404 -0.30644773
O -0.92471869 -1.08706521 -0.91745373
C -0.51766487 -1.39984822 -2.32620391
C  0.00791319 -0.06062424 -2.91804556
O  1.05821797  0.62223261 -2.21825309
C  2.36933114 -0.04797619 -2.1458401 
C  3.11426648  0.3265562  -0.90057041
O 2.2241888  0.03700566 0.17843556
C 2.40298295 0.58169861 1.47094974
C  1.68668153 -0.12861973  2.54389971
O  0.35784766 -0.28848122  2.0401794 
C -0.43778027 -0.9094956   2.99542335
H -2.18333055  2.88726087  1.5707934 
H -2.69123901  2.80438665 -0.23640969
H -3.72850098  2.15382864  1.02725828
H -2.67780283  0.46527125 -1.39894528
H -3.77327819  0.07865323  0.17933035
H -1.95330789 -1.69998558  0.74012475
H -2.81506621 -1.93510512 -0.84853998
H  0.14703855 -2.25022844 -2.28604369
H -1.44617117 -1.6700654  -2.85396962
H -0.87001608  0.64549245 -3.00500633
H  0.31114174 -0.33008292 -3.91139982
H  2.92599082  0.22003473 -3.03241863
H  2.31856995 -1.13967429 -2.25885506
H  3.39053453  1.45759248 -0.86208518
H  4.08060023 -0.24823688 -0.85147604
H 1.96600018 1.64779809 1.3978725 
H 3.47456005 0.6890085  1.79560395
H 1.66280896 0.52282727 3.47428391
H  2.04691581 -1.18598173  2.79755041
H -0.02169816 -1.83701209  3.45579698
H -1.44144006 -1.12537072  2.61314073
H -0.55778516 -0.17877051  3.83604946
