38

Li -4.08827092 -2.7755519  -4.8480651 
C -2.35282742 -5.3399455  -4.94422264
O -2.50364789 -3.88536625 -4.76996294
C -1.32521178 -3.18542904 -4.26990193
C -1.75132968 -1.64681137 -3.97940506
O -2.10349356 -1.54212496 -2.59787719
C -0.94750252 -1.4588538  -1.60484523
C -1.27039819 -0.23920389 -0.78623017
O -0.38153387 -0.06660625  0.31350682
C -0.39552745  1.12517839  1.09730564
C 0.63898363 1.04966847 2.37234761
O 0.93594111 2.41222796 2.65229236
C 1.64769938 2.66906029 3.86780284
C 2.28546405 4.041928   3.81151758
O 2.87323814 4.62976661 4.99877163
C 3.96777336 3.99851537 5.61684239
H -2.1987005  -5.94143613 -3.97747048
H -3.23115311 -5.72438993 -5.47700395
H -1.50293134 -5.35120399 -5.66836028
H -1.0109314  -3.54872748 -3.17557643
H -0.49786241 -3.20283962 -5.01656291
H -2.60546939 -1.11104111 -4.52439284
H -0.83154112 -1.00051725 -4.15984092
H  0.00589561 -1.2452668  -1.98497009
H -0.99859738 -2.37258315 -0.96256182
H -1.02125105  0.60508628 -1.55691526
H -2.34650106 -0.10874557 -0.42740159
H 0.11550868 2.00708822 0.51473667
H -1.44694745  1.3258845   1.35349905
H 0.11722308 0.58517129 3.19936113
H 1.58166864 0.49116775 2.24181549
H 2.39072228 1.91957469 3.9479505 
H 1.02270557 2.56853447 4.78525244
H 1.53051797 4.77291431 3.45234308
H 3.0531861  3.97535132 3.0479082 
H 4.89151323 4.51364444 5.32461973
H 3.81574245 4.15063714 6.72445942
H 3.9378462  2.90524448 5.40923425
