38

Li -3.88913568  0.14877452 -0.80158551
C -1.57137039 -0.56278484 -6.21595233
O -1.80267848  0.44263577 -5.18773059
C -1.90759549 -0.11357551 -3.94138775
C -2.10957651  1.09226763 -2.98471454
O -2.27537027  0.61598712 -1.57954991
C -1.20278634  0.87337118 -0.61983371
C -1.66833029  0.07882979  0.60366219
O -0.5794062   0.05967974  1.48824259
C -0.83522213 -0.86577368  2.51992472
C  0.40388523 -1.07000995  3.35519721
O  1.30279949 -1.80852841  2.59610996
C  2.49490644 -1.14711147  2.2138523 
C  3.1715373  -0.37540146  3.33505567
O 2.74332791 0.96501722 3.49971196
C 3.63866061 1.87986811 2.90036733
H -0.55074564 -1.08672211 -6.15456416
H -1.61683036 -0.0231233  -7.18655568
H -2.41927595 -1.28490292 -6.25640668
H -2.83632414 -0.76382288 -3.82904062
H -1.01661022 -0.7459994  -3.61876481
H -1.16670548  1.69476487 -3.01087039
H -2.99802288  1.6780474  -3.27176035
H -0.29928957  0.48611071 -1.06979008
H -1.05870929  1.98290391 -0.42565308
H -1.9952458  -0.94133009  0.37370118
H -2.5182394   0.56938493  1.05662727
H -1.12454658 -1.91245394  2.08547969
H -1.70800749 -0.55598886  3.21696065
H  0.8312814  -0.08774281  3.71645896
H  0.06419793 -1.68298207  4.20460795
H  2.35116847 -0.5292198   1.29866704
H  3.14126891 -1.97147883  1.90193354
H  4.25109746 -0.41085982  3.09448425
H  2.98552124 -0.93711716  4.25494299
H 4.19101804 1.47200806 2.05724278
H 3.13750955 2.82441742 2.70708092
H 4.44184462 2.01286095 3.67384905
