38

Li -1.26747626 -2.02605936 -2.76723355
C -3.18699545 -1.82920696 -5.1950968 
O -2.48132037 -1.31719716 -4.07824919
C -3.41495734 -0.80362121 -3.13913222
C -2.67201847 -0.04199821 -1.97673393
O -1.93825497 -1.13297426 -1.45897601
C -1.50524234 -1.30583258 -0.06128931
C  0.00624929 -1.45671126 -0.01028658
O  0.7308738  -0.53960849 -0.80743688
C  1.71901462  0.24069428 -0.21267235
C 1.13600826 1.46927543 0.46443746
O 2.13528587 2.07942559 1.23839713
C 1.86628936 1.92325962 2.64626407
C 2.97016715 2.4877689  3.62276192
O 3.02989299 1.6729593  4.77552673
C 3.62230183 0.39667752 4.65388175
H -3.47791807 -0.99869635 -5.87737144
H -2.46854107 -2.53108338 -5.71907892
H -4.1284423  -2.36486109 -4.94998349
H -4.17814939 -0.13710342 -3.54380771
H -3.94205593 -1.80513545 -2.65958839
H -3.50830681  0.17726096 -1.34005602
H -2.01896701  0.82298588 -2.15091514
H -2.02761964 -2.2324489   0.27823482
H -1.94379591 -0.39863932  0.40397337
H  0.40255064 -1.49420348  1.06732809
H  0.23902004 -2.48585746 -0.35903832
H  2.25714318 -0.17424573  0.70443441
H  2.43441353  0.55633223 -1.01876844
H  0.79323759  2.23582542 -0.38345465
H 0.20329727 1.22880028 1.05542928
H 1.55962624 0.86978815 2.93896508
H 0.99330847 2.61251955 2.93624298
H 2.5411105  3.52130229 3.8569973 
H 4.02193447 2.57147927 3.15458291
H 4.18902523 0.18623988 3.65549003
H 4.42933388 0.38872237 5.37690642
H  2.8799771  -0.36583286  4.87931557
