38

Li -1.82525014 -3.69342274 -2.44808794
C -3.70203909 -3.63392841 -4.99877335
O -3.38294819 -3.00833378 -3.70832802
C -2.84912655 -1.72167385 -4.06291806
C -1.62909918 -1.17633189 -3.24951776
O -1.26852528 -1.8976748  -2.03931654
C -1.20056344 -1.3431377  -0.72989371
C  0.113395   -0.6390881  -0.41223537
O -0.3972808   0.59652915 -0.01706139
C  0.4758518   1.71630945 -0.06201529
C 0.500111   2.30272571 1.34090004
O 1.74005119 2.74404172 2.03713424
C 1.99970412 1.86785157 3.15783377
C 2.6266018  2.80704342 4.22494529
O 2.79774867 2.14758026 5.45688605
C 4.02213969 1.39927643 5.54421886
H -4.59649302 -4.30937461 -4.94235025
H -4.13024355 -2.8952068  -5.65047783
H -2.84252935 -4.20166081 -5.38094663
H -2.40484462 -1.70524678 -5.10812941
H -3.63924126 -1.0460647  -4.02265379
H -1.72852511 -0.0967212  -2.99365088
H -0.86523255 -1.38724638 -3.99898306
H -1.33994193 -2.2506096  -0.10479277
H -2.04997721 -0.6557037  -0.64828168
H  0.68841573 -1.10242625  0.48987069
H  0.86252363 -0.66191166 -1.22835527
H  1.49416244  1.40008849 -0.35585408
H  0.15725164  2.54655967 -0.70558094
H 0.02046111 3.26646208 1.27052247
H -0.132622    1.69975201  1.98213843
H 2.76484323 1.11991649 2.94552688
H 1.03560242 1.38728898 3.37894029
H 2.00037799 3.70683891 4.27930263
H 3.57687037 3.14643359 3.83511277
H 4.35621078 0.9502582  4.54523268
H 4.85050072 2.0419513  6.10716309
H 3.90165995 0.57885632 6.27247586
