38

Li -3.71188941 -4.86976809 -1.43213425
C 3.10976787 6.02339745 1.90260028
O 1.77555013 6.45413053 2.03631553
C 0.77266059 5.56816638 2.4167507 
C 0.11405172 4.87964356 1.2135201 
O 0.73229946 3.58347723 0.96594538
C  0.2238822   2.97401627 -0.19169744
C  0.71808747  1.51112151 -0.23149043
O -0.16054774  0.68000019 -1.00258714
C -0.24465563 -0.59174577 -0.42738176
C -0.04432031 -1.69064207 -1.45420038
O -0.41913836 -2.92684914 -0.86744551
C -0.67254179 -4.07503258 -1.65606155
C -1.02008528 -5.19985254 -0.66371156
O -2.22182125 -5.83578892 -0.99303033
C -2.15217429 -7.3047273  -0.91821958
H 3.72429799 5.92842093 2.90279348
H 3.64896455 6.69944973 1.21287839
H 3.15778958 4.97800335 1.5604249 
H -0.00640482  6.19529589  2.99187759
H 1.10220253 4.80231352 3.11041487
H -0.97526099  4.7367595   1.3741078 
H 0.25301852 5.47103668 0.26726594
H -0.88287272  2.96879316 -0.09360194
H  0.44414083  3.57702851 -1.13319228
H  1.7567842   1.35978912 -0.56490195
H 0.7057341  1.12354368 0.77675801
H -1.21654749 -0.74150294  0.13252594
H  0.48104939 -0.79273143  0.35892918
H  0.96770463 -1.75846745 -1.91202109
H -0.67494917 -1.55585775 -2.29802772
H  0.16571504 -4.3495542  -2.24294747
H -1.61347442 -3.90484482 -2.29416526
H -1.05302635 -4.84704574  0.40609917
H -0.17341797 -5.88237131 -0.56792864
H -2.18049891 -7.7307959   0.09328752
H -3.12898185 -7.67944955 -1.30108097
H -1.30109205 -7.77735965 -1.47666752
