38

Li -2.48979869 -0.98039517 -1.89003155
C  1.76408662  3.92596354 -1.03989885
O  1.98860328  2.69060422 -1.67825494
C  1.37856016  1.51793459 -1.10146619
C  1.8010103   0.25287793 -1.77839185
O  1.29538124 -1.010765   -1.18694868
C  2.25930915 -1.63581502 -0.28539883
C  1.67442337 -2.89133753  0.31622069
O  0.33951986 -2.7122538   0.66738174
C -0.57648991 -3.14032214 -0.37031479
C -1.91500625 -2.73310371  0.07263094
O -2.32109487 -1.33138127 -0.07786011
C -1.59695161 -0.41705538  0.81113935
C -2.38772462  0.92081287  0.97305079
O -1.41803512  1.92560079  1.25566133
C -1.70575925  2.65288893  2.44550828
H  2.6026231   4.5947168  -1.22899367
H 1.67499139 3.79655715 0.06456469
H  0.81540849  4.38936782 -1.45186599
H  1.74005738  1.49196434 -0.02664474
H  0.23085484  1.66012044 -1.18382178
H  1.41232543  0.21002986 -2.82033115
H  2.88606267  0.12020887 -1.84316875
H  3.17277306 -1.91727816 -0.8387118 
H  2.57151586 -0.87065307  0.46197166
H  1.7669534  -3.76782929 -0.42389098
H  2.29481053 -3.12171715  1.19681637
H -0.57046056 -4.27094013 -0.50285872
H -0.26960711 -2.69645164 -1.36101555
H -2.7666614  -3.27762848 -0.50216263
H -2.08156783 -3.0335623   1.15714817
H -0.66366903 -0.14582135  0.33930727
H -1.51345235 -0.88942505  1.8169933 
H -3.14635007  0.93488135  1.82316544
H -2.88973975  1.09993304 -0.00881988
H -0.96218531  3.45725179  2.47039959
H -2.68985599  3.16200916  2.34018409
H -1.70486044  2.04001215  3.38870774
