38

Li -2.92072683 -1.01887094 -2.3784174 
C -1.107729    0.54366687 -6.43867081
O -0.79843377  1.01307612 -5.13863435
C -1.23094701  0.15346783 -4.10915083
C -0.9893968   0.99292099 -2.9013917 
O -1.62728139  0.26107803 -1.81021249
C -1.03917719  0.56522691 -0.50514112
C -1.18540559 -0.5917438   0.49671792
O -0.65958071 -0.07488426  1.73094381
C -1.31110234 -0.46846148  2.93087478
C -0.39591881 -0.05336635  4.06840798
O  0.50668383 -1.01946164  4.54228827
C  1.4826812  -1.5292358   3.67025915
C  2.60171362 -0.58862786  3.29572813
O 2.21810373 0.18692133 2.13915979
C 3.31418563 0.87563909 1.69210557
H -0.87168701 -0.59138204 -6.52255833
H -0.53031337  1.12796581 -7.22052044
H -2.23658546  0.59878562 -6.65242552
H -2.37158665e+00 -6.83383722e-04 -4.24710132e+00
H -0.68890835 -0.84853274 -4.04337141
H  0.09391075  0.99371097 -2.80813272
H -1.34269881  2.02457436 -2.91319378
H  0.05803469  0.71028922 -0.67183517
H -1.47344357  1.54429623 -0.15822825
H -0.63782328 -1.49155713  0.15146792
H -2.31077913 -0.75805456  0.58683356
H -1.5368813  -1.54453109  2.90078862
H -2.24324147  0.15244935  2.99213776
H 0.01726493 0.91752408 3.71517767
H -0.9480765   0.11107959  4.99473778
H  1.06503063 -1.86345076  2.69308374
H  1.91579841 -2.45389265  4.13829797
H  3.45819093 -1.23135987  3.00199648
H 2.86083206 0.09259343 4.12521843
H 4.18911774 0.24392039 1.46371905
H 3.10550641 1.3995397  0.73684113
H 3.57066978 1.61937044 2.45220016
