38

Li 0.09122895 0.0392161  0.24072392
C  2.1730047  -2.18808256  0.35407587
O  1.02644104 -1.59315975  0.96919189
C  0.70163006 -1.8989279   2.31010181
C -0.68612043 -1.34485516  2.40947513
O -0.44684592  0.08665258  2.23409189
C -1.6670052   0.84803866  2.33557083
C -1.32225768  2.20692042  1.79768825
O -1.02040083  2.04147979  0.38314218
C -0.28996278  3.10651971 -0.18120971
C  0.23198663  2.52712686 -1.43868695
O  1.01348995  1.33073423 -1.16169998
C  1.3431374   0.5360836  -2.29909652
C  0.19259909 -0.34045901 -2.6496199 
O -0.19717541 -1.16454061 -1.50238627
C -0.98668142 -2.26569077 -2.01369575
H  2.23017341 -3.28987381  0.55796604
H  3.11499361 -1.75572562  0.70511513
H  2.11186113 -2.05438061 -0.75366184
H  0.70065178 -2.98906429  2.63036056
H  1.34990932 -1.30017419  2.94861626
H -1.16600911 -1.52234512  3.36281371
H -1.31018085 -1.65974735  1.49801014
H -2.47682547  0.51697228  1.61262097
H -2.02781985  0.90257687  3.42243118
H -2.15378614  2.95541908  1.88508088
H -0.3956771   2.56500414  2.31226741
H 0.52834763 3.3921724  0.55107759
H -0.85039078  4.0469534  -0.24712149
H -0.58956214  2.22202996 -2.11150055
H  0.88440961  3.26729188 -2.05549197
H  1.51141006  1.21807036 -3.11754754
H  2.24638193 -0.10755641 -2.06022234
H  0.29959565 -1.02506546 -3.42197585
H -0.64654764  0.33672983 -2.95287765
H -1.92400045 -1.84370125 -2.40035637
H -0.33639154 -2.68129868 -2.87881266
H -1.2576112  -3.12134362 -1.2744583 
