38

Li  0.86934037  1.18402786 -1.62733715
C -0.62837358 -1.45678053  6.40896405
O -0.8102696  -1.78039869  5.09712141
C -1.10450771 -0.88815031  4.03391446
C  0.04306661 -0.98791909  2.97148563
O -0.10412705  0.0460914   2.02922047
C 0.97643291 0.27169742 1.19089896
C  1.05093803 -0.83769747  0.11515762
O  1.75478519 -0.38922665 -1.06243914
C  1.78559072 -1.56743453 -2.04755788
C  0.48771404 -1.47384194 -2.90179332
O  0.55001229 -0.16759578 -3.46058556
C -0.57571782  0.34844281 -4.13374387
C -1.02705217  1.86447312 -3.92603455
O -0.31495825  2.36712023 -2.72728519
C -0.62396187  3.75723508 -2.48399896
H  0.35040492 -0.89485192  6.61394944
H -0.72234372 -2.35827317  6.99441279
H -1.51603696 -0.91764009  6.85316684
H -2.11478228 -1.1053767   3.59878981
H -1.26901723  0.16060098  4.4617015 
H  0.95111867 -0.94129772  3.61414652
H -0.01097084 -1.96304114  2.44882073
H 0.84675341 1.27487002 0.76425531
H 1.9626181  0.36852348 1.79242577
H  0.02082219 -1.21034407 -0.19060654
H  1.56695938 -1.71476348  0.5064632 
H  1.82255424 -2.4596985  -1.50466608
H  2.69748675 -1.3880957  -2.67410361
H  0.43842755 -2.26314621 -3.64898815
H -0.41123773 -1.60188922 -2.28609394
H -1.43328747 -0.31126137 -3.84713939
H -0.47160221  0.1806643  -5.20513505
H -2.1663285   1.83421119 -3.72444253
H -0.76379155  2.54708232 -4.78759012
H -0.30487443  3.89917216 -1.45738192
H -0.11068041  4.55528401 -3.16046023
H -1.69110397  4.01922789 -2.63751131
