38

Li  0.2763418  -0.130621    0.45835143
C -1.49404616  2.07230773  2.34901127
O -0.54827282  1.86305532  1.33307597
C 0.57546478 2.77235536 1.30179658
C 1.6729792  2.29508349 0.39486525
O  1.05120636  1.3943879  -0.46637552
C  0.68961867  1.85333319 -1.68979377
C -0.62803999  1.19661521 -2.25648294
O -0.83397429 -0.0988878  -1.55548812
C -0.19121899 -1.22732296 -2.1137697 
C  1.28830325 -1.56025957 -1.7462283 
O  1.55028855 -1.64426726 -0.34337419
C  1.21639165 -2.90165131  0.34271947
C -0.27714482 -3.01637479  0.58445504
O -0.63012303 -1.75043825  1.20506546
C -2.02409182 -1.75057713  1.69311766
H -1.56897473  1.12957144  2.93799777
H -1.30547558  2.92592868  2.9991252 
H -2.40416728  2.4454231   1.76828734
H 0.98729179 3.13990242 2.31869893
H 0.23032618 3.73420803 0.91992182
H 2.51155691 1.87232477 0.88247504
H  1.89411592  3.32152893 -0.14429729
H  1.52816761  1.63706214 -2.36254637
H  0.72987799  3.01228165 -1.76855627
H -0.54694383  1.0430253  -3.38494324
H -1.49495756  1.83845042 -1.87841723
H -0.90148025 -2.09010816 -1.96752725
H -0.15243231 -1.23321791 -3.22525244
H  1.60077577 -2.44322058 -2.29268939
H  1.97428704 -0.75375045 -1.93255245
H  1.77538003 -2.80080373  1.30184365
H  1.68743537 -3.83164308 -0.09145281
H -0.82764805 -3.16500942 -0.31379573
H -0.37485911 -3.81140698  1.37964046
H -2.07038465 -1.24345956  2.65325772
H -2.6015964  -1.31732117  0.8295257 
H -2.36397722 -2.77650396  1.88031123
