38

Li -0.18012343  0.29697702  0.21597887
C -1.17243324  0.49594724  2.93723628
O 0.11229326 0.31740106 2.34472879
C 1.1114175  1.30748166 2.42134985
C 0.87403435 2.564337   1.55798788
O 0.62186974 2.03982793 0.26598553
C  0.09822444  2.85277637 -0.79804119
C -0.04462085  2.05406118 -2.10918595
O -0.93816966  0.97805485 -1.67518896
C -1.03125968 -0.02606557 -2.64254771
C  0.07673867 -1.03234781 -2.43679175
O  0.80461721 -0.76089038 -1.21072773
C  1.55511592 -1.90207796 -0.73141579
C  0.79048034 -2.28391757  0.53325531
O -0.5852771  -2.12390068  0.24374992
C -1.37425657 -3.28041352  0.29789921
H -1.85489972  0.69317822  2.10307361
H -1.36006008 -0.39120968  3.55718362
H -1.25876665  1.23610615  3.70526077
H 2.06894298 0.79711227 2.04237427
H 1.21527844 1.59145551 3.51122759
H 1.65785291 3.31139106 1.60716131
H -0.06031854  3.05362746  2.07205986
H  0.72525532  3.72409266 -0.99500443
H -0.8372787   3.20309501 -0.40726928
H  0.9277589   1.72625863 -2.41805942
H -0.55330661  2.58952088 -2.98206366
H -1.93306583 -0.53184458 -2.42696287
H -1.00090955  0.39080033 -3.69422913
H -0.41710585 -2.019718   -2.35765654
H  0.79208527 -1.14353523 -3.31337225
H  2.54457162 -1.47140992 -0.44502402
H  1.64477067 -2.58220245 -1.63373551
H  1.02403146 -3.26175951  0.964418  
H  1.01957369 -1.48515679  1.21386538
H -1.14048931 -3.97723718 -0.54730814
H -1.49614625 -3.8353027   1.21385998
H -2.42642508 -3.11451294  0.01592834
