38

Li -5.91092533 -5.19204513 -1.46993502
C 3.39907627 4.23049133 2.23388419
O 2.30450051 3.78993383 1.48837183
C 2.58416707 4.0640958  0.07659451
C  3.69314773  3.28508838 -0.71128573
O  3.33845406  2.06382554 -1.20558458
C  2.90179048  1.07168795 -0.31395639
C  1.29127263  1.10456752 -0.32199683
O  0.86554902 -0.18110304  0.15207882
C -0.53690073 -0.32904721 -0.03624082
C -1.0807046  -1.69753323  0.11693752
O -2.35967745 -1.566656    0.92254536
C -3.4363153  -1.993483    0.09894155
C -4.04013404 -3.40372442  0.43462275
O -4.37129427 -4.14572576 -0.79818919
C -3.3132562  -4.88944821 -1.36045583
H 3.37801236 3.73783469 3.28275568
H 3.35522511 5.29233331 2.39725493
H 4.30608017 3.89973233 1.72370225
H  1.61925557  3.86805868 -0.40719669
H 2.81049143 5.15993275 0.04179894
H  3.93356584  3.83491126 -1.61654149
H  4.6324227   3.19162652 -0.11222943
H 3.41696318 1.23265433 0.71809623
H  3.24707316  0.05236695 -0.78371302
H 1.02988525 1.88765026 0.42591597
H  0.9291318   1.2994085  -1.30001749
H -0.8423688   0.19624117 -1.00203758
H -1.02956335  0.25799588  0.75273568
H -0.26443965 -2.14375735  0.69415432
H -1.19101502 -2.18726451 -0.88215236
H -3.20828968 -1.97133322 -0.98651022
H -4.25804923 -1.29071537  0.24386627
H -3.23204286 -4.01058217  0.95187578
H -4.94392115 -3.37568399  1.13942692
H -3.37697012 -4.80030032 -2.45172866
H -3.28184776 -5.96723433 -1.05572796
H -2.35834878 -4.3747997  -1.08006021
