38

Li  0.08915398 -5.38510811 -1.78688904
C  2.13500778 -4.80541934 -0.35000002
O  0.72886933 -4.22073497 -0.55214554
C  0.45371366 -2.97255313  0.09315745
C -0.21489833 -2.08390903 -0.93363075
O -1.02997793 -1.17712203 -0.2137998 
C -1.85048376 -0.47664084 -1.16004489
C -2.76168486  0.64253875 -0.58990269
O -2.32155977  1.94751682 -1.13744337
C -2.7034103   2.98811127 -0.22703282
C -1.51845661  3.63923916  0.39810761
O -0.65014452  2.71776384  1.13953056
C 0.30670993 2.11648515 0.34227705
C 1.1917115  1.25569513 1.29295986
O 2.52051373 1.09587038 0.77397685
C 3.41566828 1.96452069 1.3995323 
H  2.83235737 -3.92306376 -0.40118282
H  2.14387714 -5.39722081  0.61075885
H  2.31798302 -5.39989282 -1.30267173
H  1.38014139 -2.64733727  0.60318393
H -0.32397301 -3.0544009   0.89058825
H -0.81869584 -2.80026541 -1.57994477
H  0.54762455 -1.55359921 -1.51032614
H -2.45109063 -1.23578527 -1.72311471
H -1.22287486 -0.03940451 -2.05208544
H -2.76316579  0.72275435  0.49745399
H -3.80162483  0.39041896 -0.89289781
H -3.35252541  3.77162209 -0.65050953
H -3.25399758  2.52374309  0.61698962
H -0.87387102  4.17545015 -0.35092378
H -1.88238746  4.3718209   1.15327813
H  1.00406768  2.98947676 -0.14226409
H -0.27177015  1.62779247 -0.47793728
H 1.16658326 1.69531761 2.29364782
H 0.69953106 0.21535002 1.35723533
H 4.37367494 1.79737823 0.79705835
H 3.10561837 2.89802401 1.30202467
H 3.65378567 1.62556755 2.47298639
