38

Li -0.65517268  0.17545495  1.0722342 
C  1.99363963  2.77532922 -3.17622271
O  0.83878031  2.81292708 -2.32660491
C -0.41303103  2.5470049  -2.87743205
C -1.16364422  1.54805524 -1.86296689
O -0.50323528  0.50960225 -1.08458423
C  0.20479233 -0.48754533 -1.85373427
C  0.98925829 -1.41910893 -0.89579396
O -0.02479773 -1.61766237  0.24614183
C -1.32018225 -1.99504198 -0.15366492
C -1.9631093  -2.50018017  1.17817017
O -1.88492351 -1.29164849  2.05243615
C -1.08684378 -1.56055554  3.21292907
C  0.31749091 -0.91473768  3.46147601
O 0.35172043 0.25287442 2.65896865
C 1.60017976 0.98351309 2.72690727
H  2.74612463  2.14553254 -2.67999869
H  2.40434054  3.84261942 -3.3350802 
H  1.70191039  2.3547465  -4.16386576
H -0.86817056  3.54103651 -3.02171825
H -0.29902085  2.01715784 -3.88743848
H -1.46085041  2.18183699 -1.01301665
H -2.04185449  1.08446798 -2.25922585
H -0.60815062 -0.91795582 -2.48567072
H  1.01735408  0.07904459 -2.39762214
H  1.28383341 -2.26289392 -1.47058325
H  1.94041271 -1.18390061 -0.30863005
H -1.28826257 -2.84932291 -0.87636872
H -1.81167236 -1.16420908 -0.73699905
H -3.02361968 -2.75661964  1.140154  
H -1.33414908 -3.15531726  1.76539479
H -1.09465261 -2.64810697  3.26397701
H -1.6603662  -1.32158542  4.12132504
H  1.10435384 -1.62390436  3.27218316
H  0.41191891 -0.65257773  4.54486562
H 1.72542075 1.13357579 3.85962929
H 2.36831451 0.34361776 2.18488508
H 1.50586378 1.99447715 2.10554437
