30

O  0.92562815 -3.68072208 -9.56558617
S  1.82997143 -4.4221416  -8.64599108
O  3.28174395 -4.00407467 -8.73649055
N  1.40972353 -4.61060052 -7.04326972
S -0.2072297  -4.7200043  -6.70322923
O -0.32556473 -5.66475924 -5.55552296
O -1.16030354 -4.80694858 -7.79469041
C -0.68428127 -3.1006566  -5.96509472
F -2.03210454 -3.02166156 -5.99491238
F -0.32207886 -3.03611675 -4.68902131
F -0.23946105 -2.05656198 -6.65312516
C  1.83735098 -6.16404509 -9.46465834
F  0.63589227 -6.86625031 -9.20833925
F  2.88148885 -6.88359709 -8.9709423 
F   2.01415136  -6.08379705 -10.77559145
O -2.15130637  3.96897026  8.74478143
S -1.90520409  5.15258335  7.84009586
O -2.9877064   5.69919079  7.06507035
N -0.52527456  5.21655229  7.0800111 
S 0.71245747 4.17211186 7.40796447
O 1.94673493 4.68226722 6.85092706
O 0.65193896 3.534302   8.71781383
C 0.36130074 2.65254353 6.28049799
F 1.26039797 1.67742947 6.48583833
F 0.37857215 3.01539735 5.03139179
F -0.86688838  2.13519848  6.58160078
C -1.74061777  6.52413446  9.14381025
F -0.62590692  6.37398045  9.91843865
F -1.62083416  7.73208717  8.54347447
F -2.73259039  6.58518873 10.07474867
