30

O -3.63144752 -5.38903796 -5.72068383
S -2.47888199 -6.21499294 -6.103676  
O -2.0033007  -6.05468575 -7.50131655
N -1.13243681 -6.05083877 -5.17500816
S -0.68171014 -4.78234876 -4.27671304
O  0.33905977 -5.35260055 -3.37208086
O -1.81031984 -3.95477962 -3.81537861
C  0.16163447 -3.59505012 -5.56337949
F  1.52247005 -3.92049756 -5.64560805
F -0.52332466 -3.65194712 -6.70038698
F  0.16594037 -2.29576252 -5.15414483
C -3.20997136 -7.9749204  -5.91866843
F -2.18097604 -8.90468435 -5.97101467
F -3.89345803 -8.02405091 -7.08668908
F -4.02812396 -8.16083575 -4.8317699 
O 1.23320186 3.81021023 5.73322705
S 1.3893675  4.7076132  4.52425298
O 2.1500335  4.23539073 3.3229019 
N 1.82932385 6.22775301 4.9626886 
S 1.75932311 6.73654571 6.48910323
O 1.8348151  8.19033983 6.56119101
O 0.73571721 6.10512199 7.38820078
C 3.49656638 6.15186797 7.08960873
F 3.69187092 6.54290323 8.39052745
F 4.38359665 6.7353865  6.27642796
F 3.68153374 4.82904702 7.06227549
C -0.3589212   4.95068378  3.85384014
F -1.13637785  5.59896007  4.78443277
F -0.40870623  5.73288326  2.76951451
F -0.89649817  3.77232655  3.62832588
