30

O  0.10336945 -3.89680744 -9.30479   
S  1.09905505 -4.64543436 -8.51257169
O  2.53067372 -4.41917581 -8.89497285
N  1.08318077 -4.79256719 -6.89673556
S -0.32417729 -4.89804306 -6.13800806
O -0.11904566 -5.63251582 -4.85939549
O -1.62538753 -4.98217212 -6.89633326
C -0.4666988  -3.14043497 -5.71481346
F -1.36605905 -2.88051568 -4.68768731
F  0.7171402  -2.73585267 -5.2124522 
F -0.74256566 -2.3065261  -6.75460305
C  0.79702727 -6.53283009 -8.95174633
F -0.49446811 -6.89649131 -8.74104251
F  1.58780366 -7.27022673 -8.12546763
F   1.10880382  -6.76283434 -10.21023105
O -1.86860722  3.83012354  8.04391873
S -1.73398179  5.02514225  7.11278466
O -2.67539584  5.31243302  6.07262009
N -0.24608649  5.29323819  6.55074701
S 1.14783952 4.75263449 7.29428234
O 2.28217776 5.48587692 6.76075761
O 1.09356266 4.3598831  8.724036  
C 1.40453536 3.03656677 6.4327284 
F 2.33613951 2.27390275 7.0691098 
F 1.849934   3.22364077 5.17686715
F 0.25970286 2.27463136 6.38550935
C -1.8930333   6.44116912  8.34576071
F -0.99656389  6.39073441  9.34455157
F -1.71562692  7.63748994  7.75451135
F -3.13324806  6.45496107  8.83266568
