30

O -11.02431029  -1.83374349  -6.01203556
S -9.79713484 -1.77546217 -6.89258418
O -10.05386576  -1.17546362  -8.3160176 
N -8.50766872 -1.11369371 -6.29080779
S -8.19019447 -1.50258407 -4.7034983 
O -6.78455783 -0.96477628 -4.52124014
O -8.44807593 -2.7612513  -4.13882337
C -9.3634779  -0.32464873 -3.62485292
F -8.72095592  0.03664072 -2.48527771
F -9.76896616  0.82275347 -4.37387508
F -10.50542031  -0.92460708  -3.32837709
C -9.41790354 -3.59460439 -7.21414746
F -9.64168769 -4.27786227 -6.14452203
F -8.06470986 -3.73481092 -7.38527844
F -10.06443461  -4.02520477  -8.2817727 
O 10.15134331  2.33232138  7.03269166
S 10.33199978  2.83140386  5.64957304
O 10.86960896  4.07571632  5.37588685
N 8.96705861 2.58450451 4.72757277
S 7.92075788 1.38337772 4.95337378
O 7.01980299 1.49039148 3.85159579
O 8.62653766 0.12799051 5.22013595
C 7.01954674 1.72219414 6.61782486
F 5.77666242 1.15370366 6.54645173
F 6.80557132 3.02707664 6.65145785
F 7.5961961  1.30881181 7.77345761
C 11.59278204  1.50081628  5.01212762
F 11.46426265  0.30023925  5.44279829
F 11.36295751  1.39562276  3.55751882
F 12.84827586  1.91514827  5.30064374
