30

O -3.19751633 -3.05265397 -3.05823001
S -3.43885421 -1.89969569 -2.11191169
O -2.45719046 -1.67473807 -1.01133726
N -3.68855485 -0.48898246 -2.89403418
S -4.90592679e+00 -8.33075798e-04 -3.86895951e+00
O -5.71649897  0.98488165 -3.09582155
O -5.68075669 -0.93452508 -4.75946898
C -3.76171376  1.14825699 -4.95880332
F -4.39905283  2.39894919 -5.03023654
F -2.54901328  1.35588042 -4.42633038
F -3.58669957  0.7664595  -6.22372815
C -5.00467705 -2.40610125 -1.15475782
F -4.90045298 -2.14469575  0.12171175
F -5.26705145 -3.73413413 -1.21545491
F -6.03025428 -1.71283028 -1.64523612
O 2.05979444 0.46749862 2.24019301
S 3.0820713  1.52662    2.16968408
O 3.03676403 2.54265244 1.15603088
N 4.6605458  1.24646096 2.50309486
S 5.41981255 0.2956886  3.53678922
O 6.6965675  0.90229147 3.91301728
O  4.63263123 -0.2703574   4.67961216
C  5.92866048 -1.21736008  2.44576884
F  7.17560227 -1.05591351  1.99388434
F  5.17682873 -1.45345391  1.33873871
F  5.86575256 -2.3651808   3.22009653
C 2.77548057 2.48729988 3.72135825
F 3.60926152 2.184133   4.75292908
F 2.9571006  3.83058935 3.50442428
F 1.50733993 2.27379339 4.15697716
