30

O -1.22470962 -2.0712161  -3.7055634 
S -0.46215343 -1.61835088 -2.56707633
O  0.96184884 -1.98432141 -2.4792473 
N -0.48105331  0.0308923  -2.2233044 
S -1.62445531  1.18670063 -2.3009316 
O -1.26228268  2.25845373 -1.36085231
O -3.06877659  0.78021556 -2.29946823
C -1.48721234  1.99233332 -4.07776717
F -2.09432176  3.17391498 -4.06128919
F -0.15420482  2.30443543 -4.48410565
F -1.98583123  1.20642526 -5.15795378
C -1.45846146 -2.42902798 -1.0681039 
F -1.175532   -1.86636944  0.05222095
F -1.35499107 -3.8307556  -0.97138339
F -2.79491267 -2.23413739 -1.29884187
O 0.96262191 1.25422682 0.71027532
S 2.19850611 1.17356534 1.49474731
O 3.55781009 1.67405514 1.04055842
N  2.46990958 -0.24590191  2.16416228
S  1.60626214 -1.53926985  2.26028785
O  1.25479682 -2.28803296  1.05461794
O  2.07852982 -2.38875385  3.35219078
C -0.18003474 -1.10672553  3.03193397
F -1.14161091 -1.83886652  2.45014336
F -0.58425571  0.10422536  2.8249589 
F -0.16728461 -1.36864408  4.35878213
C 1.88153399 2.18066641 2.99747692
F 1.09435486 1.77554707 3.99202214
F 3.10999997 2.31127799 3.72539563
F 1.52591014 3.40343819 2.5461146 
