30

O -0.67817252 -1.43539528 -3.88124922
S -0.3662452  -1.36380695 -2.41976573
O  0.99212413 -1.62778095 -1.94084171
N -0.90502016 -0.07631477 -1.63739795
S -2.0250869   0.79078054 -2.40439206
O -2.27826426  1.9409973  -1.4467173 
O -3.25992937  0.22232469 -3.03779106
C -0.91069025  1.32455182 -3.89080295
F -1.10924653  2.69585008 -4.09944552
F  0.42032744  1.20084617 -3.49141277
F -1.14311566  0.6985738  -4.98510794
C -1.39140266 -2.84660242 -1.67423581
F -1.00453287 -4.004868   -2.15545746
F -2.7219896  -2.6531561  -1.85869913
F -1.1730706  -2.79331741 -0.33389411
O -0.18782404  1.46067841  3.55315941
S 0.42002699 1.79211869 2.24190704
O -0.16772223  2.79186827  1.30983729
N 0.98738807 0.54503205 1.295889  
S  1.63291047 -0.91172474  1.74097485
O  1.37572743 -1.85675802  0.66183957
O  2.91375311 -0.79844699  2.43146794
C  0.63771056 -1.66436936  3.21961008
F  0.99196965 -2.89251417  3.39217288
F -0.57217546 -1.67426125  2.72556234
F  0.80521242 -0.96418894  4.37642252
C 1.93685016 2.81476206 2.93135927
F 2.14480307 2.54143981 4.20691838
F 3.14356982 2.65354225 2.37191667
F 1.492115   4.09013942 2.79817346
