30

O  1.50414854 -4.46971608 -0.2247733 
S  0.16116949 -3.85300373  0.09994855
O  0.13041499 -3.05862933  1.34239964
N -0.50888215 -3.07718513 -1.21207798
S -0.07124136 -3.19936428 -2.7557092 
O -1.11355427 -2.59279551 -3.50963028
O  0.377319   -4.62898188 -3.00860541
C  1.47208886 -2.18930862 -3.21142367
F  1.4924656  -1.75831957 -4.51319769
F  1.70856488 -1.11010835 -2.40529544
F  2.57906055 -2.98191127 -3.12461018
C -0.88372981 -5.37227175  0.69225425
F -0.81119213 -6.45447915 -0.07450549
F -2.19314108 -5.09456766  0.94616363
F -0.29795868 -5.75284061  1.86638746
O 0.409176   5.76639827 1.03828222
S 1.12117977 4.45450699 0.953951  
O 2.3989395  4.31560929 0.24052865
N 0.24716629 3.16786386 0.73442503
S -1.22800152  2.81418008  1.31238608
O -1.37501336  1.33507858  1.32316684
O -1.66453352  3.58719797  2.52213618
C -2.27041902  3.35287916 -0.22131809
F -3.36056147  2.49528669 -0.30948304
F -1.62149159  3.35414222 -1.3593047 
F -2.80824654  4.56466551 -0.05303302
C 1.51330261 4.1917797  2.86076491
F 1.083781   2.99845085 3.39553003
F 2.92451086 4.06912757 2.95004674
F 1.08467853 5.12631618 3.70459628
