30

O -2.36912142 -5.44876641 -5.96420236
S -3.39992903 -4.38930209 -6.25729572
O -3.01906182 -2.97285147 -6.21583701
N -4.16768711 -4.55072694 -7.74199839
S -4.43427679 -5.9338979  -8.52896507
O -5.5514805  -5.77412608 -9.50797139
O -4.38587029 -7.2136545  -7.73480054
C -2.83447565 -6.05953096 -9.69853007
F  -3.25459966  -6.51830041 -10.89470486
F -2.19581464 -4.93182255 -9.84191866
F -1.96551621 -7.03792314 -9.37281742
C -4.77312912 -4.49412649 -4.83123472
F -4.54952838 -5.72727104 -4.2156445 
F -5.95179512 -4.42948192 -5.47735514
F -4.56339338 -3.61544596 -3.91234906
O 4.67027676 6.50168716 6.23984241
S 5.10180784 5.397993   7.1168418 
O 6.04753704 4.41270422 6.52901593
N 3.90986901 4.45908247 7.86203252
S 2.3394413  4.92103907 7.83321161
O 1.58322333 3.91875849 8.58367859
O 2.07925712 6.36558706 7.98200887
C 1.88488251 4.52273926 5.98246134
F 2.62482492 3.4053825  5.72419165
F 2.13396467 5.44004454 5.04889041
F 0.57688782 4.18861085 5.87360625
C 5.98045114 6.22985342 8.58085356
F 5.76956273 7.54145708 8.42292985
F 5.40837265 5.82396867 9.73498355
F 7.30532028 5.96832008 8.68107655
