30

O -2.03259336 -4.22274397 -8.09141889
S -3.40739228 -3.89156925 -7.50116756
O -3.63323278 -2.59206038 -6.85766453
N -4.71479355 -4.31755075 -8.47672184
S -4.48429954 -5.69625884 -9.39733326
O  -5.74311019  -5.89592888 -10.09267156
O -3.90521702 -6.82000212 -8.6544684 
C  -3.32184458  -5.2083034  -10.91683519
F  -3.69526678  -6.03109336 -11.96970812
F  -3.44797832  -4.00025633 -11.26937128
F  -1.95916178  -5.45715755 -10.7807298 
C -3.56017763 -5.05517988 -5.99121631
F -2.87880123 -6.21678136 -6.04533418
F -4.85198403 -5.30452918 -5.71192757
F -3.04007515 -4.3750433  -4.83624527
O 4.23779632 6.54769857 7.89203176
S 4.86015628 5.45640528 8.65036025
O 6.15583004 4.93310674 8.2224547 
N 3.88459919 4.18904517 8.93637756
S 2.37526081 3.95662276 8.44784428
O 2.11616408 2.51468418 8.66390089
O 1.45213101 5.01452079 8.83954166
C 2.24021867 4.175016   6.50379574
F 0.90741765 4.09968671 6.22969495
F 2.81206783 3.14506498 5.80111373
F 2.68933293 5.32796381 5.94844129
C  5.19053821  6.23290375 10.28000916
F  4.27030785  7.23387155 10.51206986
F  5.11910286  5.45662057 11.41428532
F  6.36500449  6.80124768 10.2508926 
