30

O  -5.52676249 -13.75395983  -1.41754457
S  -4.04748934 -13.52282162  -1.27027012
O  -3.39779385 -13.68957893   0.08384264
N  -2.99367163 -14.12285847  -2.36389846
S  -2.9184253  -13.99926678  -3.92572036
O  -1.5497673  -13.96584884  -4.45707141
O  -3.88889582 -13.10069042  -4.5689176 
C  -3.50712048 -15.76021002  -4.40396426
F  -3.22280806 -16.06088333  -5.69744749
F  -2.97678986 -16.76659889  -3.69155197
F  -4.84795027 -15.90170635  -4.23960158
C  -3.94687124 -11.66141133  -1.49886531
F  -5.1564778  -11.20287039  -1.88771944
F  -2.98331724 -11.29160665  -2.39806164
F  -3.62356643 -11.13650931  -0.31941712
O  3.26403337 14.6534094   4.69871934
S  3.01426772 14.9810507   3.22984715
O  1.78318629 15.73631436  2.90878206
N  3.1213939  13.94440014  2.02177911
S  4.07644808 12.53077101  2.02532242
O  4.16676762 11.96608431  0.64472489
O  5.3508671  12.56842976  2.84264411
C  2.84790812 11.27307436  2.92802108
F  2.74367378 10.15560847  2.10532759
F  1.62525134 11.75222969  3.06606234
F  3.42991535 10.85684145  4.04729478
C  4.50791777 16.16871554  2.96743566
F  5.57036088 15.79308679  3.69556864
F  4.86191089 16.0871446   1.63627624
F  4.2238049  17.46966057  3.23840325
