30

O -1.98968122 -3.73124232 -8.51981783
S -3.30440033 -3.82421352 -7.93923727
O -3.87365555 -2.69054256 -7.20353411
N -4.61446274 -4.41215226 -8.75089443
S -4.45365685 -5.62093323 -9.80097327
O  -5.80620665  -6.00373815 -10.31476789
O -3.54085398 -6.64799264 -9.30327271
C  -3.66197711  -4.97096916 -11.34071583
F  -4.02523095  -5.64105107 -12.48506651
F  -3.98975724  -3.60280487 -11.54785565
F  -2.25318089  -4.94667103 -11.38245214
C -3.10895114 -5.0507233  -6.47276549
F -2.16148081 -6.00986911 -6.82696139
F -4.2108597  -5.70481183 -6.10465283
F -2.61721841 -4.42475209 -5.35133477
O 4.10591592 6.92170228 8.51744817
S 4.6850885  5.63952907 9.03539111
O 6.13877737 5.34101114 8.889414  
N 3.856105  4.2413726 9.0510914
S 2.32430555 4.1079267  8.6999213 
O 1.75916441 2.83431481 9.17593759
O 1.47773767 5.32119067 8.81569738
C 2.4080303  3.84852512 6.80572194
F 1.26474199 3.58727559 6.19943826
F 3.21317123 2.7262728  6.64034787
F 2.94668216 4.89461992 6.14792061
C  4.82709358  5.90841963 10.98012651
F  3.65227706  6.30928117 11.53726289
F  5.22891083  4.75786117 11.60144944
F  5.723572    6.84316449 11.24713366
