30

O  1.77872836 -4.40572677  0.52627329
S  0.49936598 -3.72338094  0.60379127
O  0.17320155 -3.02352019  1.90579193
N  0.03355861 -2.73542386 -0.64563565
S  0.07858272 -3.21708524 -2.21378917
O -1.15228868 -2.62898397 -2.85194556
O  0.46551302 -4.61995667 -2.38802944
C  1.39935432 -2.23857527 -3.01203558
F  1.34339857 -2.08352508 -4.39112091
F  1.41080318 -0.9742224  -2.49660956
F  2.58046196 -2.78829656 -2.7367875 
C -0.81334821 -5.14782772  0.61804238
F -0.50504234 -6.03293059 -0.36266018
F -2.05905004 -4.67150314  0.42602366
F -0.76609695 -5.85184895  1.72273738
O 0.3536768  5.64993537 0.60681867
S 1.06141273 4.35913053 0.74458331
O 2.35053884 4.11050575 0.05735643
N 0.13998605 3.00526861 0.41531866
S -1.32246819  2.71397882  1.13223207
O -1.51713276  1.28610674  1.44012137
O -1.84068983  3.79096239  2.02332387
C -2.45248581  3.02656536 -0.48147915
F -3.42367295  2.01854953 -0.4107539 
F -1.90904869  2.98110579 -1.697344  
F -3.05596796  4.19072756 -0.44141866
C 1.6630546  4.29743807 2.62877689
F 0.73836128 3.70297717 3.45268942
F 2.82740172 3.48524105 2.73508779
F 1.91989213 5.5243146  3.09064088
