30

O  -5.25205521 -13.64887176  -1.33891496
S  -3.79199942 -13.37305561  -1.30632322
O  -3.03575979 -13.61305714  -0.03539307
N  -2.88758543 -14.0118608   -2.50223398
S  -3.13331382 -14.06539009  -4.08328324
O  -1.84781426 -14.02381953  -4.81496701
O  -4.27365799 -13.20721661  -4.57526344
C  -3.67895246 -15.88466477  -4.38145796
F  -3.12442641 -16.18721728  -5.55449216
F  -3.18354909 -16.77579936  -3.47109064
F  -5.0262521  -16.01075569  -4.43749091
C  -3.81112464 -11.56537954  -1.67847383
F  -4.80047644 -11.20821182  -2.48298098
F  -2.60626022 -11.13258783  -2.13025964
F  -3.95068341 -10.84839238  -0.51473312
O  3.62940264 14.34857638  4.73731238
S  3.1079917  14.85336012  3.44587869
O  1.82320835 15.55780672  3.36902142
N  3.02660165 13.94784783  2.07868231
S  3.93859762 12.48254569  1.90158759
O  3.82090552 12.00280822  0.51247728
O  5.33302545 12.58570064  2.44465991
C  2.88064195 11.16547718  2.92441739
F  2.69025166 10.07161649  2.17912126
F  1.68273411 11.61108482  3.20576154
F  3.55312533 10.85943455  4.02018316
C  4.44566265 16.24417613  3.18137289
F  5.39706151 16.22186063  4.1878629 
F  5.16995986 16.11742738  1.98636819
F  3.90474068 17.48655741  3.13265126
