30

O -8.35058169  2.22609397 -5.6315474 
S -8.4215614   0.84086942 -5.09032689
O -7.27792613  0.18182529 -4.48996587
N -9.67759093  0.5304436  -4.08018996
S -11.17515577   1.20733023  -4.23824036
O -12.23304165   0.16242752  -3.82432581
O -11.44578862   2.10861617  -5.37855164
C -11.04615644   2.29735601  -2.62848596
F -12.31865867   2.84311257  -2.32986234
F -10.586121     1.58650413  -1.595998  
F -10.18573302   3.35201359  -2.77136176
C -8.71535462 -0.04210509 -6.75375866
F -9.85505762  0.31988106 -7.2779126 
F -8.74561295 -1.3716603  -6.67104704
F -7.67719835  0.29280176 -7.53238002
O 11.48067734 -0.26766198  3.3677873 
S 11.47035725 -1.40179324  4.29279632
O 12.39640004 -2.50709885  4.04432636
N  9.98868452 -2.10052116  4.58758631
S  8.67876711 -1.19699732  4.94501459
O  7.77853453 -1.79695897  6.00038057
O 8.86373564 0.32692613 4.94827131
C  7.52870049 -1.30119949  3.4307323 
F  6.21116512 -1.00015148  3.86473395
F  7.53036042 -2.49003582  2.91571489
F  7.77379167 -0.40244393  2.42079636
C 11.88362431 -0.72309058  6.01579429
F 12.05579421  0.62482499  6.15374121
F 10.94267498 -1.05967095  6.90488727
F 13.12827125 -1.23963727  6.40139132
