30

O  1.04584215 -8.29741733 -5.8129671 
S -0.22287484 -8.3149734  -6.64155331
O -0.69957728 -7.13805053 -7.48089243
N -0.27814968 -9.54444256 -7.71707345
S   0.48730442 -11.00135162  -7.44159699
O   0.13701807 -11.78023571  -8.63600172
O   0.43109774 -11.61867598  -6.08259744
C   2.38391437 -10.48415193  -7.59430753
F   3.01779252 -11.53083167  -8.06931699
F  2.60090414 -9.45243491 -8.35841257
F   2.85090101 -10.25237678  -6.36061165
C -1.50701678 -8.46873124 -5.27897731
F -1.0322931  -7.85083514 -4.15592623
F -1.76492386 -9.79442933 -4.93993492
F -2.67191564 -7.88721748 -5.60130406
O  0.65250973 10.81110282  5.63124267
S -0.65179177 10.13606787  5.37523076
O -1.69288779 10.67720609  4.42814548
N -1.54323901  9.81082413  6.73414989
S -1.0702464   9.0347943   8.06320495
O -2.11307415  9.00986953  9.11142245
O -0.19278375  7.88292379  7.90224505
C  0.05975187 10.4442713   8.83067556
F  0.35200542 10.04787202 10.14194047
F -0.59737619 11.60738848  8.8652384 
F  1.26762045 10.63115249  8.27341343
C 0.0626443  8.59993775 4.436567  
F 1.30800696 8.27052474 4.75043586
F -0.72957023  7.47600282  4.50671571
F 0.11040733 8.97621746 3.12084602
