30

O -3.15425182 -4.30593903 -5.26037243
S -2.48678986 -3.25003585 -4.43384642
O -1.49151703 -2.45976066 -5.2042869 
N -3.36602416 -2.31540778 -3.42152354
S -4.87806576 -2.83434752 -2.77088159
O -5.08206985 -2.06383915 -1.50257817
O -5.40120493 -4.22084782 -2.76017986
C -5.89933219 -1.95106902 -4.00833216
F -5.38933282 -0.77764904 -4.31576515
F -6.05999848 -2.78863918 -5.04701389
F -7.16096368 -1.7983852  -3.4613141 
C -1.42686135 -4.16206972 -3.21804672
F -2.12626495 -5.29109031 -2.93137552
F -1.0683085  -3.42026808 -2.07050937
F -0.31511332 -4.51831553 -3.90523448
O 3.86919189 3.38760463 5.34388794
S 3.55924022 2.12738345 4.62975366
O 3.90801146 0.83626941 5.24334802
N 3.89421271 2.10159912 3.08435608
S 3.9795232  3.47010921 2.14781123
O 4.31476121 3.06160204 0.75362163
O 2.85063629 4.451726   2.37216441
C 5.54292895 4.35864441 2.70112282
F 5.96290757 5.15278826 1.69310961
F 6.554113   3.53609662 3.06357087
F 5.33949975 5.26039976 3.7150159 
C 1.72041277 2.1119576  4.88759007
F 1.33678642 3.32150329 5.33123069
F 1.10183794 1.86621959 3.64088667
F 1.37203533 1.1137605  5.70379073
