30

O  1.81470793 -2.31759642 -3.25094859
S  1.62311475 -2.24596602 -1.75714239
O  2.23804941 -1.20512689 -0.93150593
N  0.21421859 -2.6643007  -1.13142375
S -0.92623311 -3.38876841 -2.04994833
O -2.04731124 -3.76312885 -1.17102444
O -0.40254957 -4.35371041 -3.08337954
C -1.71412312 -1.96954093 -3.0226977 
F -3.03237934 -2.15428416 -3.36505098
F -1.67955981 -0.79179583 -2.29710564
F -0.99977116 -1.72017484 -4.22816391
C  2.69581495 -3.77259755 -1.227758  
F  2.34174565 -4.90262093 -1.85002331
F  2.64286155 -4.01991423  0.11914412
F  3.94225794 -3.48805151 -1.53365808
O 1.71395625 2.99899455 1.64736296
S 0.60040938 2.12017988 1.31105919
O  0.31967986  1.6967131  -0.05595385
N -0.89126576  2.60016602  1.96661126
S -1.00124221  4.03210609  2.81386561
O -1.60339196  3.67605667  4.1751457 
O 0.08310742 5.10718295 2.79812236
C -2.3576141   4.72079402  1.64428632
F -2.82973128  5.92297048  2.08834809
F -3.35903377  3.81760538  1.4460198 
F -1.81454318  4.99471762  0.43669257
C 1.06258304 0.53263511 2.41732748
F 0.88649102 0.90728154 3.68301024
F  0.18305456 -0.52842915  2.18104026
F 2.2966973  0.15860343 2.22774846
