30

O  -4.58738324  -8.87116726 -14.11991683
S  -4.09912826 -10.28493191 -14.26227645
O  -2.93911934 -10.48739626 -15.18890836
N  -3.87386964 -11.07363455 -12.80324003
S  -4.78051697 -10.49564716 -11.47991866
O  -4.43317233 -11.46170826 -10.38859446
O  -6.23202107 -10.15727466 -11.75696988
C  -3.94353327  -8.77093851 -11.05847664
F -4.06499766 -8.78915331 -9.70126324
F  -2.56750267  -8.87401246 -11.36996826
F  -4.35096368  -7.68035064 -11.63568701
C  -5.47356326 -11.30554506 -15.16069956
F  -6.66665596 -10.66864952 -15.04205506
F  -5.60779046 -12.53944881 -14.57402241
F  -5.13123744 -11.44481118 -16.42292275
O  6.22695141 10.05882182 12.785993  
S  5.47281799 10.05806506 14.08489443
O  6.04408721  9.46186602 15.32216215
N  3.89600412  9.54035996 13.91095719
S  3.16302214  9.84858685 12.46075658
O  1.84579346  9.20066722 12.53118131
O  3.25180509 11.22577501 11.95665246
C  4.10834112  8.71233905 11.18855558
F  3.18831854  8.12698048 10.44779876
F  4.92741688  7.82739159 11.82119389
F  4.85353504  9.49223319 10.3505157 
C  5.407281   12.01181661 14.44278856
F  6.24680472 12.64039569 13.52967073
F  4.19017299 12.49382934 14.44184381
F  5.92910353 12.20554166 15.68995545
