30

O -0.52975839 -4.44900163 -0.77302291
S -0.79275465 -3.20389816 -0.0849273 
O  0.33041204 -2.39494617  0.39032784
N -1.76948371 -2.18814541 -0.86770087
S -3.05627188 -2.60463975 -1.70624244
O -3.71099892 -1.30382927 -2.111029  
O -3.89961752 -3.69707631 -1.18803494
C -2.319385   -3.49339654 -3.29414581
F -3.08037266 -3.1465999  -4.335148  
F -1.1004234  -2.98426676 -3.5963915 
F -2.28123982 -4.86773013 -3.25267819
C -1.71564036 -3.68840087  1.45810869
F -2.54552362 -4.72397898  1.25807257
F -2.51956722 -2.7263872   1.81911668
F -1.02611449 -4.10005484  2.55239311
O  3.55913414  3.50236873 -0.41787641
S  2.50120768  2.4539394  -0.22970229
O  2.15272123  1.60804216 -1.40470973
N 1.07039321 2.9042287  0.44830079
S 0.98951116 3.82409008 1.70532258
O -0.43186378  3.73541001  2.22897165
O 2.08167088 3.77751681 2.68678434
C 1.09312332 5.63585751 1.02062562
F 0.46911868 6.51206557 1.819696  
F  0.45017357  5.74949974 -0.13889696
F 2.36400115 6.03961932 0.78871608
C 3.25555044 1.19875721 1.10250252
F 4.12938161 1.78946586 1.85593726
F 2.37455685 0.5770984  1.87708926
F 3.95805949 0.2643924  0.38854138
