30

O  -9.05113437   4.25970577 -10.01285085
S  -8.76607254   3.19237935 -11.03594231
O  -7.95651754   3.58931778 -12.23758637
N  -8.04725771   1.83773383 -10.49830047
S -8.43656987  1.0367958  -9.08583326
O -8.03356714 -0.38632458 -9.08352939
O -9.80093153  1.33430776 -8.56791418
C -7.2258542   1.8430357  -7.84968112
F -6.90559048  1.02967714 -6.83384693
F -6.14535467  2.18304191 -8.54300332
F -7.70173775  3.01327961 -7.34040334
C -10.50021905   2.7644676  -11.79943604
F -11.48807225   2.47756605 -10.89763168
F -10.41017271   1.66031585 -12.58536081
F -10.86400367   3.83215243 -12.55575524
O  9.80202568 -0.77677863  9.35795113
S  8.28827332 -1.08536429  9.29079659
O 7.34409027 0.06036363 9.21393521
N  7.82887419 -2.30720301 10.2976127 
S  8.91955317 -3.49639677 10.75244472
O  8.09234445 -4.65786418 11.16733866
O 10.07847945 -3.82563122  9.81332374
C  9.69912888 -2.70246697 12.26289478
F 10.30766276 -3.62884748 13.02900552
F  8.74371021 -2.01355132 12.97536205
F 10.58691092 -1.75177226 11.87237106
C  8.01945345 -1.75569958  7.56249387
F  8.73188322 -2.8969004   7.21829333
F  6.70984385 -2.05868693  7.47824615
F  8.18082165 -0.77065257  6.63500579
