30

O -3.51773153 -5.86366271 -0.746875  
S -2.44699417 -4.86504464 -0.96506216
O -2.81367102 -3.48889142 -1.38845896
N -1.54300114 -4.5411124   0.37013398
S -0.71031038 -5.68940872  1.16363835
O -0.34109949 -5.18029317  2.54223027
O  0.37373818 -6.39583854  0.3397331 
C -1.88967825 -7.20984691  1.71846763
F -1.25601271 -7.90446949  2.64680095
F -3.03984168 -6.70345628  2.32056516
F -2.19813358 -8.05360162  0.72278143
C -1.25167739 -5.50445476 -2.42124093
F -0.80891116 -6.73714666 -2.16906086
F -0.24978482 -4.56564995 -2.46167817
F -1.92087305 -5.54660074 -3.57488642
O  0.36203925  7.0855698  -0.72360754
S  0.72946328  5.78598528 -1.16343312
O -0.13779967  5.00533045 -2.11852689
N  1.07684066  4.69179328 -0.05536724
S 1.97692764 5.04580006 1.29355741
O 1.97220436 3.85450201 2.12452247
O 3.2657859  5.85090805 1.05046013
C 0.95644792 6.29507038 2.43449522
F 1.51145999 6.10052136 3.72472807
F -0.3154345   6.10815209  2.52105383
F 1.30469657 7.54882686 2.12891648
C  2.41786813  6.18563298 -2.14403029
F  3.09668439  7.08497528 -1.48944508
F  3.18798832  5.00130468 -2.24951369
F  2.20880996  6.60510547 -3.4308981 
