30

O -7.69911284 -3.12223127  1.80723836
S -6.94302873 -2.17638194  0.99448357
O -5.47914113 -2.2513918   1.08496862
N -7.29728339 -2.23578086 -0.6471825 
S -8.85009319 -2.25127923 -1.14713137
O -8.77551508 -1.80518866 -2.58812825
O -9.85760921 -1.61896228 -0.2164062 
C -9.45949268 -4.01298995 -1.25099927
F -9.72551378 -4.40356155 -2.48689576
F -8.5013451  -4.82056008 -0.71624786
F -10.55984639  -4.30348797  -0.44860984
C -7.41807814 -0.39913473  1.47356527
F -8.67267272 -0.1135353   1.73726096
F -6.99414883  0.46644027  0.52795678
F -6.67910739 -0.20223205  2.59478185
O 9.42054703 1.0366142  1.32429749
S 9.51045881 2.46817124 0.94386265
O 10.3820833   3.34311603  1.75806882
N 8.06451053 3.10356285 1.06666576
S 6.71072198 2.88815978 0.0998295 
O 5.56119951 3.39014919 0.84157834
O  6.81637956  3.39311652 -1.26467014
C  6.36912741  0.97172106 -0.09560959
F  5.27098994  0.91815196 -0.90183633
F 5.97574853 0.37592978 1.04075921
F  7.35233478  0.24649657 -0.60895969
C 10.19748837  2.7372905  -0.87920295
F  9.72287984  1.92497167 -1.82451617
F  9.99372755  4.02029953 -1.29890474
F 11.56379148  2.43252652 -0.92001653
