30

O -9.84969506 -2.61077628  0.75201548
S -8.38492455 -2.59319594  0.56578103
O -7.61873281 -3.18396515  1.66007063
N -7.81739262 -3.43700307 -0.76267695
S -8.65687061 -3.38788569 -2.20975167
O -8.1893611  -4.48205257 -3.11865921
O -8.67137382 -1.99040491 -2.69552665
C -10.52084739  -3.93018102  -1.99093404
F -10.95766545  -4.33605436  -3.18835797
F -10.65219635  -5.06188092  -1.21857031
F -11.22097846  -2.98912562  -1.43148249
C -7.8282097  -0.69571078  0.45114748
F -8.91820738 -0.04938277  0.84138652
F -7.35614515 -0.2464655  -0.69737194
F -6.85950471 -0.53556161  1.33816399
O 10.40820979  1.02628811  1.23864147
S 10.54118325  2.52883076  1.27435199
O 11.84569663  3.07127186  1.75586746
N 9.33798315 3.43638971 1.98982633
S 7.64858299 3.54323762 1.64079792
O 6.99055974 3.90607295 2.8792523 
O 7.30090492 4.27094315 0.37814009
C 7.06531016 1.72662667 1.2119013 
F 5.72608152 1.63630754 1.13655802
F 7.55654504 0.83846353 2.10890523
F  7.54353381  1.41959023 -0.02876336
C 10.46892821  2.98494869 -0.63860436
F  9.3674534   2.38764277 -1.11877474
F 10.25193624  4.33036911 -0.74301717
F 11.44919632  2.42266349 -1.38031639
