30

O -7.04070525 -3.08024799  1.65588872
S -6.57769048 -1.88421151  0.9389632 
O -5.13536486 -1.54083397  0.8712086 
N -7.32744725 -1.62140357 -0.52877693
S -8.80598624 -1.93572935 -1.00953846
O -8.83183931 -1.67733538 -2.47115517
O -9.91107454 -1.35210643 -0.22174719
C -9.01130784 -3.87841947 -0.82422542
F -9.16767849 -4.3412702  -2.09330977
F -7.93271031 -4.63731806 -0.33963815
F -9.97096111 -4.23640166 -0.06899611
C -7.25283189 -0.49661482  2.01265051
F -8.2498082  -0.99917681  2.78519464
F -7.7470679   0.5346714   1.38877324
F -6.2937835  -0.07326664  2.88848283
O 9.37620732 0.70677438 0.10237925
S 9.10574887 2.14006212 0.5342116 
O 9.6136389  2.59875938 1.85226989
N 7.67434125 2.83312171 0.30666721
S  6.55063908  2.31933573 -0.8847703 
O  5.47655145  3.32822045 -0.88902982
O  7.23486892  1.82792615 -2.11889855
C  5.73652438  0.83875971 -0.17828832
F  4.46154797  0.75276656 -0.53517861
F 5.87160288 0.8766166  1.14096253
F  6.33844822 -0.274408   -0.68469916
C 10.21878407  3.09840945 -0.65385385
F 10.0656819   2.76243615 -1.96987934
F 10.00285775  4.43054521 -0.66962923
F 11.5288142   2.98033885 -0.33603781
