30

O -10.07771031  -2.51281959   0.90484806
S -8.65445405 -2.71131634  0.52954873
O -7.78693024 -3.27759711  1.53202863
N -8.26686521 -3.47535991 -0.81844772
S -8.71730047 -3.58981128 -2.31298372
O -8.18604372 -4.82642438 -2.82980298
O -8.71021151 -2.35531778 -3.15859761
C -10.59513639  -3.78003615  -2.21600833
F -11.05429646  -4.29721741  -3.40213282
F -10.91605252  -4.63995723  -1.20687005
F -11.36859552  -2.66981142  -2.10384872
C -7.98454797 -0.97227244  0.23668807
F -8.9858191  -0.10142224  0.25632486
F -7.3600035  -0.92274774 -0.98526865
F -7.00822062 -0.72837751  1.23621936
O 10.6449091   1.04555408  1.10005279
S 10.68020921  2.47956514  1.30320607
O 11.95947523  3.03213717  1.83560141
N 9.54926551 3.27888106 2.10577313
S 7.96789577 3.57034157 1.90922854
O 7.55565085 4.13464151 3.20680342
O 7.55177242 4.38578829 0.74245418
C 7.24331034 1.85722052 1.51182059
F 5.87561068 1.95989578 1.56904511
F 7.6613499  0.90569029 2.38497033
F 7.53801678 1.46537783 0.27293922
C 10.39851185  3.10819805 -0.50979472
F  9.2284429   2.48849603 -1.07116114
F 10.30411481  4.36034922 -0.72024585
F 11.51365222  2.78835202 -1.30239021
