30

O -9.91696406  3.25347775 -4.02122988
S -8.81179623  2.37269096 -3.5658642 
O -8.01965126  2.97175434 -2.49155678
N -9.12236039  0.86241408 -3.2527443 
S -10.39205536   0.04863452  -3.88537632
O -10.30856079  -1.36154282  -3.47829897
O -10.70700337   0.40392399  -5.30320848
C -11.90054031   0.7288731   -2.81349886
F -12.52660145  -0.41244788  -2.32651401
F -11.47252295   1.46759694  -1.77074543
F -12.8006484    1.41729645  -3.55024129
C -7.62524388  2.23574382 -5.16815513
F -8.06470122  3.14021264 -6.05988163
F -7.68996189  1.04929039 -5.72218793
F -6.38195478  2.5302     -4.81924592
O 10.81783483  0.11904057  2.63282343
S 11.1046543  -1.27381489  3.08207518
O 11.96336885 -2.12950422  2.20660176
N  9.849599   -2.20731187  3.55840783
S  8.60094055 -1.62411008  4.47920016
O  8.18573269 -2.68230292  5.44681936
O  8.67074421 -0.24883389  4.93502821
C  7.15425293 -1.54687468  3.24298519
F  6.00293787 -1.9553665   3.81489213
F  7.35617763 -2.4434204   2.23122755
F  6.97271227 -0.30448533  2.69772271
C 12.0620096  -1.12818674  4.69218178
F 11.37650598 -0.51886514  5.65020824
F 12.43597044 -2.35129223  5.13280792
F 13.1871252  -0.41278995  4.42576766
