30

O  -7.66302488 -12.07322079   1.85856394
S  -7.78072945 -12.18514054   0.35616795
O  -9.12227885 -12.30987171  -0.24768252
N  -6.94958649 -11.08627981  -0.50837013
S  -5.45570095 -10.48215851  -0.18672362
O -5.28690466 -9.34486514 -1.18506781
O  -4.39814677 -11.57966521  -0.03932154
C -5.27916139 -9.48669212  1.52717579
F -4.40032836 -8.51864417  1.43833637
F -6.4631548  -8.84798209  1.88259547
F  -4.91334837 -10.32049055   2.52249354
C -6.88307169e+00 -1.38325347e+01  1.21274690e-02
F  -5.95812807 -14.16576451   0.951343  
F  -6.31220864 -13.72381976  -1.21405211
F  -7.69591637 -14.89466943  -0.04529163
O  7.56870564 10.14331624 -1.48084754
S  7.63730702 11.59371631 -1.2523664 
O  9.05779881 12.11803831 -1.2001018 
N  6.88277348 12.14427526  0.1305614 
S  5.31306165 11.85438388  0.43173391
O  4.80322558 13.00515118  1.22767102
O  4.4851093  11.31173328 -0.65019488
C  5.44990297 10.47082869  1.7175885 
F  4.15956847 10.19853281  2.13439288
F  6.16759487 10.81865734  2.7611872 
F 5.98696302 9.32817131 1.25454754
C  6.89385491 12.3526703  -2.78207698
F  5.7260403  11.72461337 -2.99644276
F  6.70995737 13.63665272 -2.6312471 
F  7.71982635 12.15105802 -3.78669914
