30

O -2.55260919 -6.03403727  0.88375751
S -1.82772077 -5.45646079 -0.29438829
O -1.9668292  -6.16426432 -1.62633584
N -1.78063273 -3.87310742 -0.58528935
S -2.71915793 -2.74412475  0.11674722
O -2.35664134 -1.42932069 -0.3425166 
O -2.86716135 -2.97809165  1.59386769
C -4.51436903 -3.00908621 -0.59463556
F -5.16617196 -1.92916188 -1.08557651
F -4.47440445 -3.82233785 -1.69356909
F -5.31637433 -3.71772668  0.24534047
C -0.07443695 -5.64774466  0.24357867
F  0.24514549 -4.97701282  1.38860651
F  0.84199623 -5.25130707 -0.70894983
F  0.11629707 -6.96773058  0.50979118
O 4.05924686 3.30207187 0.44956612
S 2.687956   2.86710738 0.18880581
O  2.49884825  1.7125135  -0.69707331
N  1.56531784  4.02823006 -0.1393085 
S 2.05901425 5.61157955 0.08607653
O 0.86607176 6.40275647 0.42881052
O 3.26171111 5.91116914 0.87908412
C  2.47508016  6.16736195 -1.66312056
F  3.10948394  7.4262112  -1.66243906
F  1.30714705  6.30701442 -2.31450696
F  3.34935029  5.35776697 -2.36292908
C 1.91682107 2.37160668 1.85020247
F 1.92417484 3.30081619 2.82977655
F 0.67843811 1.91607376 1.67242529
F 2.65440892 1.31923548 2.40420188
