30

O  -7.28878833 -11.65419422   2.02722562
S  -7.67072306 -11.83433763   0.53017095
O  -9.03524864 -12.0712607    0.1403332 
N  -7.06751212 -10.82217475  -0.50903968
S  -5.49801307 -10.3277556   -0.38000372
O -5.19235559 -9.16865264 -1.29723565
O  -4.64618553 -11.52826647  -0.31695944
C -5.29120035 -9.54664321  1.37527465
F -4.59945408 -8.37591645  1.38732535
F -6.4998674  -9.18444147  2.02378814
F  -4.63236258 -10.40888766   2.13178967
C  -6.86654243 -13.54449041   0.23939424
F  -5.94729166 -13.97134665   1.1657076 
F  -6.26243903 -13.60656519  -0.9801978 
F  -7.90048771 -14.42005642   0.20177145
O  7.29336398 10.05378198 -1.40095628
S  7.55421898 11.46671014 -1.14043854
O  8.88885048 11.99465499 -0.97341208
N  6.65256667e+00  1.21253160e+01 -1.84927241e-03
S  5.13183754 11.61181478  0.32866203
O  4.43350666 12.52402696  1.23688086
O  4.30600609 10.97336116 -0.71502832
C  5.55228715 10.18322942  1.46544651
F 4.2672962  9.66955324 1.79240096
F  6.05510288 10.49243564  2.67619537
F 6.26635627 9.16218553 0.90518102
C  7.11472477 12.3778741  -2.71956779
F  5.93087816 11.88164769 -3.27186285
F  6.81586387 13.62484928 -2.34233522
F  8.13561188 12.3235486  -3.57866097
