30

O   1.02350831 -12.37804954  -5.90236036
S   1.13987413 -11.1432285   -6.63083   
O   2.50745371 -10.55008973  -6.79285188
N   0.50876004 -11.07014678  -8.1313267 
S  -0.90992991 -11.80951072  -8.38463498
O  -1.72170159 -10.91300834  -9.27061913
O  -1.57876876 -12.41711466  -7.2342708 
C  -0.41605022 -13.25045753  -9.55131327
F  -0.84323836 -12.92382652 -10.77836708
F   0.87966724 -13.50076997  -9.58473657
F  -1.09076712 -14.36825899  -9.13382027
C  0.20626505 -9.78224393 -5.61235569
F  -0.8700619  -10.18457875  -4.99177509
F -0.19547485 -8.80556447 -6.47804546
F  1.11007093 -9.25415762 -4.67990096
O  0.1638928  10.10203846  9.32071917
S 0.03907189 9.95474698 7.84445612
O 0.67298758 8.78966501 7.13193739
N  0.13627202 11.2680888   6.89619413
S  0.07380183 12.86254686  7.39197603
O -0.62091499 13.52259295  6.28657848
O -0.38538878 13.36999188  8.71701411
C  1.91554922 13.3185471   7.40770131
F  1.98354298 14.50161247  8.04640348
F  2.57420208 13.34549164  6.2442877 
F  2.54266388 12.37029936  8.14048211
C -1.8390077   9.79451989  7.5089413 
F -2.55173555 10.899446    7.82030315
F -2.04760226  9.48208852  6.22122442
F -2.40694171  8.7693301   8.17898934
