30

O  -5.90148107 -11.07472893   2.42007305
S  -7.11366677 -10.91415913   1.60439237
O  -8.47647121 -10.75304506   2.31523839
N -7.0200063  -9.76276356  0.37152877
S -5.58651172 -9.55370572 -0.32894978
O -5.89290326 -8.732088   -1.5636043 
O  -4.61995884 -10.66349478  -0.48758702
C -4.69611607 -8.28824009  0.85952699
F -3.63913431 -7.66515592  0.23978714
F -5.55188909 -7.35015229  1.30302676
F -4.15872347 -8.82554785  1.94805368
C  -7.48781339 -12.60441192   0.71770408
F  -6.42832386 -13.06493144   0.08579325
F  -8.51624158 -12.37172792  -0.12444437
F  -7.94888072 -13.48597611   1.63053112
O  8.28235465 10.22351173 -1.86234242
S  7.68177594 10.97331659 -0.71829289
O  8.41961945 11.24532869  0.51898406
N  6.25864189 10.44016484 -0.07287965
S  4.94349035  9.69041562 -0.88101958
O  3.67504759 10.39341192 -0.66640259
O  5.18649947  9.03885611 -2.22000057
C 5.05604949 8.19171958 0.19035393
F  4.11554206  7.20416605 -0.08872925
F 4.83880438 8.49226633 1.44486572
F 6.28697215 7.72807063 0.02937228
C  7.21092478 12.58261287 -1.50135908
F  6.30760848 12.29921797 -2.47154687
F  6.57697038 13.37122892 -0.58299708
F  8.19782058 13.23584084 -2.10907617
