30

O -2.3194404  -3.61030081  1.1479366 
S -2.19510959 -2.18044649  0.96967659
O -1.59456241 -1.43516002  2.09599075
N -1.4830226  -1.69669109 -0.45758511
S -1.47756894 -2.48425289 -1.86403204
O -1.83161115 -1.46177719 -2.93874712
O -1.92846591 -3.91722729 -2.01151042
C  0.37621505 -2.60570914 -1.8544816 
F  0.98540789 -3.34245206 -2.82304375
F  0.83976779 -1.3135065  -1.9696808 
F  0.79365484 -3.08060765 -0.64274823
C -3.88156022 -1.3874678   0.70725961
F -4.83408627 -2.06350833 -0.11105703
F -3.79035962 -0.13931588  0.2119116 
F -4.52644239 -1.21669602  1.9285016 
O 0.62668664 4.01905955 0.61228655
S 0.51660043 2.52428278 0.38491925
O -0.4534124   1.80301323  1.24095446
N 1.89792345 1.68304001 0.26285257
S 3.36294378 2.21402744 0.61849582
O  4.30020852  1.55644331 -0.35450201
O 3.52327013 3.69416902 0.81117631
C 3.72602569 1.52169613 2.34261101
F 3.29143389 0.24809999 2.42656118
F 3.05578489 2.20568743 3.33245726
F 5.05243306 1.46068529 2.62432734
C -0.34356925  2.25181659 -1.37537736
F -1.71317158  2.22600566 -1.25721156
F -0.0541554   3.3613113  -2.11351543
F  0.07818206  1.16578145 -1.94442604
