30

O -0.25124118 -3.01824624  1.92006292
S -1.04219883 -1.83470627  1.44184005
O -1.25312591 -0.4925426   2.04521851
N -1.12768106 -1.6082525  -0.14559243
S -1.03845289 -2.74711765 -1.36618895
O -1.34641285 -2.10638741 -2.66801467
O -1.60911321 -4.08533507 -0.99333486
C  0.90203571 -3.00967033 -1.63468467
F  1.13900033 -3.18344661 -2.95158861
F  1.66782209 -1.93465946 -1.36703031
F  1.27547486 -4.04202425 -0.93876508
C -2.86116758 -2.37768587  1.90009647
F -3.10053949 -3.67361767  1.49489053
F -3.8919713  -1.69197378  1.490434  
F -3.00523663 -2.35551452  3.28939387
O -0.36272371  3.58592859 -0.81001459
S -0.12845577  2.14749951 -0.98880029
O -1.15678711  1.20082024 -1.49794985
N 0.76275278 1.35737798 0.18637744
S 1.98468226 2.06905664 0.97618233
O 2.59860034 1.08256792 1.92382056
O 2.85497242 3.00300383 0.16995444
C 1.24859252 3.31071528 2.3032252 
F 2.10169465 3.29366128 3.33221721
F 0.05179234 3.03276199 2.78597927
F 1.19773375 4.50035688 1.74540287
C  0.93222737  2.31633341 -2.60113093
F  1.5285411   3.46845698 -2.55076615
F  1.82761204  1.41224237 -2.8898655 
F  0.10157294  2.38039734 -3.60136878
