30

O   0.90088697 -19.24370958  -2.96808403
S   1.48814189 -18.98684371  -1.56175035
O   0.54182476 -18.54776854  -0.50991491
N   2.54588334 -19.98557428  -0.92072075
S   3.4889714  -20.88979213  -1.8244407 
O   4.16315979 -21.98055861  -0.97909835
O   4.43093023 -20.0922801   -2.78669097
C   2.6274594  -21.99321982  -3.18856365
F   3.48015725 -23.03395937  -3.46099298
F   1.51457532 -22.52374963  -2.72663504
F   2.43106103 -21.33048456  -4.25907808
C   2.49824256 -17.41453713  -1.83741484
F   2.9820368  -17.45163126  -3.09087535
F   3.59229412 -17.31584518  -0.99983594
F   1.7861469  -16.33805933  -1.76289177
O -2.67710182 20.84705448  0.70543826
S -2.09325274 21.15925441  2.06686224
O -1.07676401 22.25530407  2.1814483 
N -1.49961479 19.81491832  2.82894943
S -2.39421988 18.36576088  2.72100066
O -1.61993405 17.45486799  3.60819658
O -3.84990905 18.46892177  2.84709028
C -2.1347001  17.77129964  0.91245543
F -2.06994175 16.40973581  1.06882373
F -0.86365317 18.23133481  0.5457227 
F -3.04805423 18.08170168  0.09912094
C -3.60004643 21.87797423  3.11513389
F -4.80636815 21.44496204  2.84247335
F -3.26400902 21.68324398  4.37809345
F -3.47420255 23.26167911  2.95617849
