30

O   2.67607273 -20.45093729  -1.4109313 
S   2.51427289 -19.78017889  -0.09317622
O   1.22069634 -19.52915057   0.47784694
N   3.52816774 -20.38236088   1.03829955
S   5.04419024 -20.92532635   0.65478186
O   5.8294905  -21.17880087   1.85330857
O   5.63407232 -20.26582843  -0.51161479
C   4.69183851 -22.64956451   0.08171769
F   5.83814854 -23.39420011   0.31870125
F   3.66809749 -23.27600975   0.69879405
F   4.5409182  -22.77439844  -1.26287347
C   3.11664408 -18.05518725  -0.63289013
F   3.91716786 -17.87915848  -1.70358642
F   3.79414523 -17.46648924   0.37214988
F   2.08896947 -17.30579584  -0.84583661
O -5.8722221  20.70395007 -0.74118509
S -4.57390238 20.64277249 -1.39023984
O -4.33904453 20.43335945 -2.80704055
N -3.6086709  19.47751959 -0.66326089
S -2.96609648 19.57758199  0.84818655
O -1.79225228 18.75025654  0.91708755
O -2.93230947 20.87345337  1.50443102
C -4.36399228 18.74620194  1.88522457
F -3.99451632 18.74492435  3.16285785
F -4.66142222 17.50803938  1.46790413
F -5.55114567 19.51556587  1.78403825
C -3.60261711 22.25754885 -1.29169178
F -3.91000971 22.95150318 -0.16114768
F -2.24263053 22.01370356 -1.23628672
F -3.69206016 23.11700626 -2.31356822
