30

O   1.59036291 -19.85019955  -2.12212284
S   1.97572799 -19.3490825   -0.82802363
O   1.01480133 -18.86108854   0.15171134
N   3.03804917 -20.21563863   0.11169893
S   4.39229646 -20.91713757  -0.51909215
O   5.07851245 -21.45238728   0.68390087
O   5.14189147 -20.13546322  -1.45125675
C   3.83454875 -22.55947028  -1.51254691
F   4.89575523 -23.45367228  -1.49586814
F   2.65891044 -23.06187789  -0.98277182
F   3.53423619 -22.26696657  -2.84669381
C   2.72939582 -17.6691094   -1.16896551
F   3.52704185 -17.74550145  -2.28921713
F   3.7036274  -17.32626754  -0.18820821
F   1.89979375 -16.63604348  -1.29676518
O -4.53376648 20.34799998 -0.23747911
S -3.1697674  20.86631847 -0.13331001
O -2.44443715 21.19318782 -1.35983166
N -2.0405527  20.17832175  0.85157658
S -2.53267739 19.22445538  2.1461901 
O -1.44699974 18.57613718  2.92086143
O -3.55863645 19.98637721  2.99134325
C -3.52753089 17.6915418   1.37269097
F -3.57749211 16.59519238  2.06772845
F -3.10943391 17.47939861  0.07110389
F -4.87932509 18.07368727  1.30042994
C -3.46375356 22.48868432  0.75305522
F -4.57615157 22.52173192  1.58652171
F -2.46569295 22.8122575   1.5505965 
F -3.68873381 23.46461461 -0.12725631
