30

O -6.27491549 -7.81752065  1.42596194
S -6.71996602 -7.67904513  0.00966101
O -6.57127636 -6.38493382 -0.73586917
N -5.89505622 -8.70453649 -1.0965023 
S  -5.38207596 -10.20659229  -0.98992161
O  -4.57220245 -10.44009211  -2.14507699
O  -6.33160656 -11.30175268  -0.52642465
C  -3.95357873 -10.11103017   0.33131804
F  -3.29940982 -11.31239631   0.24198002
F -3.07138806 -9.12003583  0.08115906
F -4.39039252 -9.90297325  1.64906123
C -8.58493033 -8.1332268  -0.10087387
F -8.90760125 -8.90804774  0.97435577
F -8.8986647  -8.8378913  -1.19161738
F -9.19979441 -6.98944985 -0.02931011
O  5.82876994 10.06159273 -1.70318583
S  7.01375443  9.66939929 -0.92646882
O  8.2787144   9.37834742 -1.61843567
N 6.8136544  8.46778426 0.19807377
S 5.52082997 8.28160558 1.21325572
O 5.94606339 7.55598831 2.43927796
O 4.63588488 9.45748495 1.32431678
C 4.47051676 6.97282655 0.19640032
F 3.85183339 6.17400641 1.10444281
F  5.23991662  6.2445958  -0.62368893
F  3.58637204  7.62330577 -0.50837756
C  7.59227569 11.16933096  0.06505424
F  6.85514116 12.2567989  -0.26393039
F  7.53515793 11.05766981  1.41629296
F  8.88397385 11.47878769 -0.21092836
