30

O -6.07887814 -7.88822697  1.27218747
S -6.53269712 -7.68811109 -0.11089918
O -6.72452799 -6.31088207 -0.6413597 
N -5.98818166 -8.73016093 -1.26453392
S  -5.34841114 -10.15461623  -0.99083328
O  -4.55260834 -10.5120704   -2.13236669
O  -6.39938148 -11.12625954  -0.49095711
C  -3.98368549 -10.11233488   0.35727613
F  -3.32846356 -11.29556816   0.35388053
F -3.0945876  -9.15827194  0.06665632
F -4.42319193 -9.96222324  1.64330461
C -8.49632454 -8.01563664 -0.1093176 
F -8.91169878 -8.73344179  0.98579993
F -8.84682069 -8.70335006 -1.18893238
F -9.18443063 -6.87434195 -0.19455517
O  5.85493946 10.23900642 -1.63197792
S  7.01245982  9.62133244 -0.94962104
O  8.14582026  9.17901322 -1.79291526
N 6.75600432 8.41068582 0.13126297
S 5.54732163 8.31575543 1.15686005
O 5.94750441 7.65091521 2.41151472
O 4.62884307 9.43716369 1.32706576
C 4.46735025 6.94193475 0.25292258
F 3.9710471  6.03392296 1.12332396
F  5.23505502  6.24274126 -0.56725351
F  3.47218982  7.53287017 -0.36331641
C  7.58711071 11.1275533   0.15161672
F  6.80191591 12.22104984 -0.0629258 
F  7.59639152 10.91905717  1.50203567
F  8.86993577 11.39249419 -0.24394247
