30

O -4.27209957 -5.31989713 -1.43965489
S -3.49082353 -4.0105808  -1.64212018
O -4.24148327 -2.77324014 -2.12495962
N -2.77544313 -3.36594602 -0.27725372
S -1.78654076 -4.09389526  0.76922819
O -1.27230356 -3.08482024  1.71293132
O -0.86186774 -5.07494653  0.19577127
C -2.99939141 -5.22260875  1.84966927
F -2.64615851 -5.15605289  3.13321283
F -4.25660812 -4.7518081   1.73376705
F -2.98771461 -6.45381931  1.38039776
C -2.22253351 -4.36197866 -2.91077763
F -1.73002941 -5.52351951 -2.64128754
F -1.14230465 -3.46250748 -2.86743787
F -2.77293681 -4.28254966 -4.16693343
O 3.36520718 2.99763192 1.60350127
S 2.42916083 4.0349999  1.86215838
O 1.31834678 3.83348173 2.87236971
N 1.57383853 4.781096   0.65753768
S  2.28297288  5.05391205 -0.87980752
O  1.15563399  5.68594244 -1.69518016
O  3.72599066  5.5353777  -1.0119628 
C  2.38641683  3.22454682 -1.62706362
F  1.98996587  3.20046097 -2.96622612
F  1.61849418  2.39131317 -0.92420491
F  3.66481493  2.69132964 -1.70032466
C 3.34024721 5.5699676  2.63723454
F 4.4895737  5.78598195 2.01684886
F 2.48216955 6.62708025 2.46408013
F 3.63540547 5.52504835 3.9864864 
