30

O -2.38819431 -3.57426603  1.16584566
S -2.00397688 -2.13985323  1.04768914
O -1.36240391 -1.4489287   2.16655665
N -1.42965914 -1.48317296 -0.34678956
S -1.36117466 -2.409506   -1.65416174
O -1.84900644 -1.80299533 -2.8740659 
O -1.72008055 -3.79140379 -1.57771474
C  0.51467396 -2.43417327 -1.85057845
F  0.80879011 -3.43705444 -2.62065953
F  1.02930839 -1.36106424 -2.40777268
F  1.00139485 -2.66018657 -0.63357093
C -3.75225279 -1.44294635  0.87282073
F -4.45944773 -2.21052415  0.07318426
F -3.72152234 -0.17800872  0.3734145 
F -4.53515576 -1.40277308  2.01706423
O 0.57328268 4.03925171 0.39899681
S 0.35281997 2.53969388 0.25478916
O -0.74757809  1.89141282  1.01052869
N 1.61317422 1.51946233 0.37508815
S 3.16300628 2.02687268 0.60618444
O  4.13105374  1.17568795 -0.10001199
O 3.48152877 3.46252712 0.74317639
C 3.42687733 1.48081705 2.36922923
F 3.53724261 0.1670137  2.53238828
F 2.58625259 1.98599145 3.22955631
F 4.60920475 1.99669451 2.76963365
C -0.23816008  2.31815383 -1.61795921
F -1.60087556  2.22188276 -1.80326141
F  0.10257429  3.56969372 -2.10839068
F  0.23830371  1.38170135 -2.41120947
