30

O  2.13588714 -7.33184341 -0.30143067
S  1.44433912 -6.8124654   0.93342304
O  2.1596437  -6.58751753  2.1952188 
N  0.31576731 -5.62951854  0.69613738
S -0.13087429 -5.05486606 -0.75726826
O -1.32989033 -4.24490845 -0.618315  
O  0.01410477 -5.95973462 -1.92744465
C  1.25309056 -3.74589879 -0.93430706
F  1.53799676 -3.5375306  -2.21119368
F  0.70300546 -2.62762823 -0.43767175
F  2.38540351 -4.10031583 -0.35203595
C  0.26251747 -8.18630777  1.31454264
F -0.54904953 -8.38047704  0.30399758
F -0.47942372 -7.81088466  2.35104581
F  0.9980016  -9.28310247  1.57914676
O -1.04174298  7.55912142 -1.21071429
S  0.19986584  6.88987647 -0.87301463
O  1.30610448  6.84457348 -1.87797024
N -0.01069327  5.29197241 -0.42866274
S -1.20417652  4.65815506  0.48657123
O -0.76474444  3.23995988  0.84873942
O -1.81005074  5.43909151  1.58319018
C -2.59188509  4.42298673 -0.7742095 
F -3.32443126  3.31074077 -0.59759613
F -2.02964654  4.22742835 -2.00038026
F -3.40499469  5.50329662 -0.81436199
C 0.82428638 7.77836766 0.68528989
F -0.09164949  8.06023082  1.59323975
F 1.79264517 7.10734232 1.24961242
F 1.43059364 8.95985588 0.29642189
