30

O  -0.29799094 -10.87542182 -11.88402286
S   0.03486074 -12.2368392  -12.35260819
O   1.32212308 -12.4382834  -13.00008201
N  -0.11840371 -13.50168218 -11.31329413
S  -1.35536792 -13.70463386 -10.30913893
O  -2.01544468 -14.96275278 -10.64507297
O  -2.07524297 -12.52166991  -9.80031644
C  -0.33047953 -14.28906199  -8.77541539
F  -1.17553746 -14.73451719  -7.81554017
F   0.47299987 -15.30672953  -9.13585769
F   0.43036606 -13.30006648  -8.26505623
C  -1.32547113 -12.73574806 -13.55775662
F  -2.5014748  -12.30586934 -13.04866159
F  -1.4076372  -14.07421184 -13.78078769
F  -1.1910755  -12.19041257 -14.78183952
O  1.37062672 15.31491753 11.01332502
S  1.14025626 14.43454303 12.17446146
O  1.72885415 14.70264893 13.49991529
N  1.01475678 12.77353877 11.97124415
S  0.62882773 12.29168303 10.44478313
O -0.2263335  11.06940759 10.54284746
O  0.08866433 13.33075437  9.54305413
C  2.3055618  11.6108243   9.81570078
F  3.36588082 12.30515651 10.27955665
F  2.23151553 11.65247585  8.4853055 
F  2.46786868 10.33487876 10.24295193
C -0.78221635 14.72292666 12.57874017
F -1.45682753 14.95084204 11.39817767
F -1.47420178 13.79295069 13.20516289
F -0.86945757 15.89035209 13.2702242 
