30

O  -6.11799976 -12.37653043   2.61183697
S  -7.53734229 -11.96969938   2.31652085
O  -8.50148366 -11.67193118   3.34280517
N  -7.70714737 -10.78829315   1.23737221
S  -6.78236271 -10.6133098   -0.07652445
O  -7.5702327  -10.00832022  -1.17731543
O  -5.79706632 -11.66380571  -0.38924325
C -5.59184276 -9.24059323  0.38892093
F -4.70282522 -9.17601676 -0.60685381
F -6.25069302 -8.05598988  0.47871426
F -4.93776183 -9.48467733  1.53244457
C  -8.17471932 -13.53841807   1.40346465
F  -7.45807999 -13.84518498   0.32391683
F  -9.46967342 -13.39353595   1.17861042
F  -8.09582981 -14.63900574   2.21658588
O  9.2216969  11.63839993 -1.30434035
S  8.22538629 12.09113636 -0.33132325
O  8.62272379 12.29290147  1.09477457
N  6.78115833 11.41628786 -0.2969957 
S  6.15880381 10.66337173 -1.59403838
O  4.8104999  11.29494382 -1.84208889
O  6.98052984 10.28097051 -2.72179136
C  5.69106678  8.93497104 -0.92610441
F  5.06553087  8.18926323 -1.83430108
F 4.82666988 9.10586316 0.16999974
F  6.75840162  8.1701716  -0.50674986
C  7.89223011 13.79453112 -1.03009007
F  7.71350703 13.66251262 -2.36265466
F  6.91541386 14.40559977 -0.39051288
F  9.03144117 14.5243876  -0.90503921
