30

O -5.59609973 -9.5287588   1.49999381
S -7.03434651 -9.70157714  1.69915776
O -7.63991552 -9.32493707  3.02400121
N -7.92164694 -8.9852258   0.55703725
S -7.3156244  -8.52387134 -0.89770815
O -8.32330409 -7.57764234 -1.44554171
O -6.80764663 -9.74843824 -1.63803975
C -5.64116657 -7.63426522 -0.64324731
F -5.65795982 -6.48701427 -1.39376726
F -5.28285089 -7.26938825  0.64653559
F -4.66253991 -8.43903292 -1.0416692 
C  -7.46055304 -11.4969982    1.62060751
F  -6.77744517 -12.2488025    0.68666253
F  -8.73098376 -11.55995973   1.40735292
F  -7.18752392 -12.2000368    2.80598727
O  7.35955265 11.38104956 -0.01417053
S  6.2526885  10.50969957  0.45384311
O  5.61070391 10.79475895  1.76296473
N 6.51545101 8.89084515 0.27134742
S  7.22676594  8.31565915 -1.08023436
O  6.67162551  6.95430371 -1.35125843
O  7.54388056  9.25616805 -2.17792451
C  8.97920217  7.69346727 -0.39142402
F  9.48515924  6.6960221  -1.17304546
F 8.83614815 7.18941979 0.87055779
F  9.9789275   8.58977309 -0.39259324
C  4.70665853 11.01834414 -0.71247131
F  4.92668194 11.2156104  -2.03871616
F  3.81111173 10.0424023  -0.61678064
F  4.13504956 12.17842538 -0.29745686
