30

O  -5.53407135 -12.1830779    2.74488867
S  -6.84519204 -12.82488715   2.62380365
O  -7.64436578 -12.76929325   3.85724952
N  -7.82305012 -12.40734904   1.40716083
S  -7.78388777 -12.48371275  -0.15654355
O  -9.02957794 -12.86969814  -0.82441373
O  -6.49607194 -13.05024509  -0.71775988
C  -7.59792654 -10.62804715  -0.66702743
F  -8.35082322 -10.36429486  -1.74812186
F -8.01433772 -9.83407914  0.3437856 
F  -6.29672578 -10.33222471  -0.99187751
C  -6.54714636 -14.70296341   2.30720874
F  -5.60524955 -14.86708162   1.36623477
F  -7.6360111  -15.29787664   1.8869683 
F  -6.06840181 -15.27764065   3.4841965 
O  8.53091391 13.13077114  0.26331735
S  7.47581657 13.97220499 -0.25599719
O  7.15736099 15.22191227  0.50609625
N  6.15668954 13.16158953 -0.70173481
S  6.25377991 11.78881642 -1.59440967
O  4.89426166 11.61423458 -2.17831479
O  7.51146865 11.38302904 -2.28021142
C  6.29392345 10.31942335 -0.31915132
F  6.09010829  9.17262355 -1.05226444
F  5.28260231 10.48128088  0.6002813 
F  7.49887831 10.19844692  0.28426716
C  8.36805156 14.74853977 -1.78263955
F  8.12933262 14.01680663 -2.89307603
F  7.95132697 16.00394803 -1.98189437
F  9.67832428 14.67884441 -1.5300211 
