30

O  -0.34137031 -11.03216608 -11.73500448
S  -0.03117029 -12.35180374 -12.30988575
O   1.15793853 -12.54872894 -13.13129086
N  -0.08119337 -13.62648871 -11.2396078 
S  -1.39246967 -13.82167863 -10.23816124
O  -2.24182591 -14.99711516 -10.54191577
O  -2.10458706 -12.60125909  -9.77425126
C  -0.35090099 -14.52747423  -8.75240899
F  -1.17357749 -14.99275431  -7.84577159
F   0.46172256 -15.50993555  -9.19124613
F   0.44173421 -13.60230075  -8.20972358
C  -1.35890832 -12.67716252 -13.5730658 
F  -2.62834485 -12.28361096 -13.21950409
F  -1.38729905 -14.02735526 -13.84207748
F  -1.11384284 -12.00728924 -14.73792332
O  1.38045024 15.63807424 11.50612374
S  1.04338759 14.46816551 12.32959633
O  1.59454335 14.34396366 13.70376413
N  0.89571561 12.9164126  11.76804473
S  0.75543522 12.40117034 10.24728899
O -0.06125905 11.16185108 10.37577686
O  0.47951989 13.3584925   9.1637512 
C  2.42988403 11.70556988  9.72682132
F  3.51559388 12.4816461   9.94700751
F  2.36171606 11.2694226   8.44049528
F  2.52646798 10.59762978 10.45756901
C -0.84817609 14.94445416 12.6531108 
F -1.4595597  15.07329822 11.442685  
F -1.47720846 14.05272232 13.37745474
F -0.9924157  16.19425017 13.20234852
