30

O  -5.10521894 -10.52669453   1.88981666
S -6.27210611 -9.68789466  1.98461565
O -6.47718504 -9.18579958  3.35870661
N -6.63666607 -8.49507964  0.87986423
S -5.77876988 -8.51311966 -0.54917826
O -6.56889102 -8.00170827 -1.66377742
O -4.94079804 -9.73489561 -0.84667585
C -4.55577754 -6.9895328  -0.31457313
F -3.83743375 -6.74333311 -1.5185883 
F -5.19740856 -5.87243557  0.04361818
F -3.71563261 -7.29167019  0.65231578
C  -7.72542776 -10.76122773   1.49707092
F  -7.54659591 -11.17139702   0.26694897
F  -8.94963756 -10.14235993   1.58892935
F  -7.81788893 -11.89733114   2.30612614
O 7.49770704 9.7919178  0.58716974
S 6.03170278 9.90256537 0.71513731
O  5.54413296 10.51327194  1.91484418
N 5.20919051 8.59270572 0.31563509
S  5.31173772  7.85506559 -1.116067  
O  4.40749591  6.66080169 -1.07191176
O  5.33577966  8.72369146 -2.34962989
C  7.06692637  7.06484995 -1.12967226
F  6.88421487  5.82548435 -1.74499429
F 7.55830301 6.7868901  0.06526039
F  7.94513304  7.6721936  -1.90886658
C  5.65390155 11.18071875 -0.70408257
F  6.58895783 11.06779589 -1.64858793
F  4.43025791 10.92856957 -1.25825327
F  5.65999657 12.44795766 -0.24120068
