30

O -4.99615145 -4.52882163 -3.14130656
S -3.7732327  -4.04492604 -3.89938093
O -2.46037299 -4.47999076 -3.30767807
N -3.70586796 -4.03329008 -5.58855209
S -5.16846536 -3.95819544 -6.39056094
O -4.66879935 -3.90363801 -7.77832139
O -6.24427795 -3.04901584 -5.93616622
C -5.91784871 -5.75099436 -6.26405702
F -6.4792798  -6.1571072  -7.46782634
F -4.94152363 -6.59113868 -6.02579234
F -6.84592188 -5.87316754 -5.30488996
C -3.98156985 -2.18308378 -3.59159423
F -5.18620279 -1.76207639 -3.32230442
F -3.51146031 -1.55264627 -4.6338691 
F -3.17330959 -1.79690451 -2.4684226 
O 4.54447132 2.18555206 4.8250942 
S 5.78579123 2.96568308 5.01009653
O 7.01155811 2.29082761 5.44781175
N 5.51204377 4.29215763 5.82419959
S 4.210582   5.22002429 5.5559726 
O 4.336196   6.40926759 6.45904733
O 3.92200497 5.35218563 4.1281037 
C 2.82630013 4.22445524 6.4605306 
F 1.9426268  5.07254528 6.93202579
F 3.35983466 3.4615217  7.41907127
F 2.10161152 3.45858063 5.52828675
C 6.25195487 3.57702272 3.23875288
F 5.21712387 3.51655993 2.31840798
F 6.75862879 4.84401678 3.29786015
F 7.27355629 2.79459633 2.67546107
