30

O -4.82870599 -3.98660001 -2.74811793
S -3.77668638 -3.26197467 -3.68798399
O -2.37124479 -3.17579631 -3.18201676
N -3.64687277 -3.69518279 -5.24670274
S -4.90118003 -3.93519081 -6.25718076
O -4.2732185  -4.43460102 -7.53621358
O -5.97004413 -2.89571907 -6.24414469
C -5.71352254 -5.54515827 -5.59543998
F -6.35293039 -6.14856479 -6.75466045
F -4.89043174 -6.37791135 -5.06579616
F -6.6909554  -5.26489657 -4.82439599
C -4.25615863 -1.37399139 -3.53427017
F -5.59692932 -1.19832387 -3.70359435
F -3.54823108 -0.62406211 -4.42984336
F -3.99229223 -0.92908869 -2.30793609
O 4.29488577 1.47388055 4.8636888 
S 5.50712497 2.2651605  4.49957936
O 6.79960404 1.51760771 4.49985531
N 5.88358152 3.66626435 5.20656865
S 4.65153946 4.8699813  5.14692847
O 5.36766433 6.14180184 5.33888093
O 3.56634413 4.71849641 4.12256243
C 3.67616389 4.49618738 6.8502416 
F 2.62487974 5.21842068 6.87572471
F 4.53291889 4.91414278 7.83917212
F 3.39416287 3.23305916 7.10122318
C 5.2140577  2.53405531 2.54489372
F 3.87500166 2.35800445 2.34833973
F 5.52132294 3.76201444 2.124692  
F 5.90015199 1.67798485 1.75594599
