30

O -13.55003933   0.33309687  -8.72685235
S -13.2226879   -0.98533676  -9.1036768 
O -13.31903625  -1.51824221 -10.55145419
N -11.75818439  -1.42960661  -8.5931639 
S -11.11409506  -1.14643192  -7.20657161
O -9.77953847 -1.85544104 -7.17758531
O -11.9609486   -1.30411531  -6.00913285
C -10.69181216   0.74353323  -7.11870803
F -9.66867647  0.92080772 -6.20664183
F -10.29416506   1.22306431  -8.31704198
F -11.77630707   1.41982498  -6.75053106
C -14.36472115  -2.15048733  -8.14069924
F -14.7196413   -1.70426176  -6.93028671
F -13.8210903   -3.35165728  -7.9830106 
F -15.55355906  -2.32665382  -8.78762481
O 10.85713876  0.70752735  6.254115  
S 11.20072299 -0.23748306  7.30955089
O 10.23946069 -1.30077338  7.76261948
N 11.83282967  0.39371953  8.6942578 
S 13.0472622   1.45758294  8.87945949
O 13.34105867  1.63914884 10.2946611 
O 14.18188667  1.37342835  7.83970376
C 12.3083285   3.29155532  8.68930136
F 13.07938317  4.08627144  9.43690268
F 11.06073667  3.32741719  9.17534099
F 12.19967827  3.78034859  7.48012216
C 12.73656163 -1.20434584  6.58915893
F 13.39184216 -0.3339395   5.70501681
F 13.64075644 -1.54558311  7.62883705
F 12.4768561  -2.30296774  5.86393377
