30

O -6.05696436 -1.69817437 -7.19378077
S -4.92703338 -0.76418775 -7.50641942
O -5.06321954  0.31572689 -8.54371045
N -4.22964505 -0.1294408  -6.11964309
S -4.28942217 -0.76901111 -4.68230352
O -3.22385116 -0.13156254 -3.82950118
O -4.43901157 -2.25098436 -4.53207891
C -5.88956934 -0.09330555 -3.90052568
F -5.85994686 -0.29996188 -2.50247187
F -6.16561677  1.13987909 -4.17239035
F -6.93855121 -0.83479295 -4.40467003
C -3.44981973 -1.77749925 -8.2629372 
F -3.53170676 -3.04776144 -8.15105136
F -2.33244072 -1.30552534 -7.75569083
F -3.38293105 -1.44578866 -9.57382504
O  4.25972754 -1.05565834  5.20563506
S 5.16821283 0.09870771 4.86834633
O  6.46351264 -0.20358674  4.21295114
N 5.43017589 1.19533769 5.98726225
S 4.32950992 1.55519444 7.14341889
O 4.35696235 2.98772136 7.42062704
O 3.02575985 0.89257225 6.97540918
C 5.08731416 0.84187665 8.73805309
F 6.26679787 1.29245454 9.11037025
F  5.12680289 -0.51396618  8.67611432
F 4.22800449 1.14776511 9.75857223
C 4.18761339 1.00239864 3.52520472
F 2.86563885 0.77604431 3.61925151
F 4.44455249 2.32772538 3.68526741
F 4.53914451 0.74780321 2.2045163 
