30

O -5.84845314 -0.90858003 -7.255539  
S -4.44233295 -0.6877505  -6.85927456
O -3.56147904  0.15309276 -7.71182987
N -4.19938444 -0.09554148 -5.41281333
S -4.80467762 -0.88650139 -4.05781607
O -4.25887983 -0.33212191 -2.76718798
O -4.90618967 -2.44505941 -4.1480297 
C -6.64352318 -0.46952875 -3.89321256
F -6.95706094 -1.10512798 -2.7506934 
F -6.83763745  0.88945962 -3.58299635
F -7.34018259 -0.82418986 -4.87067978
C -3.52810403 -2.40164388 -7.00310547
F -4.12249074 -3.49507162 -6.39718064
F -2.27702573 -2.28417359 -6.52804842
F -3.49169407 -2.70856305 -8.3093678 
O  4.90052499 -0.46423498  5.58126561
S 4.96475208 0.3768942  4.34957923
O 5.75280062 0.09843673 3.10674491
N 5.26689065 1.96188264 4.71993913
S 5.07467826 2.5151007  6.25403234
O 5.62178977 3.85519208 6.1316413 
O 3.7518639  2.34041859 6.91211186
C 6.32096978 1.52013427 7.40174299
F 6.47168186 2.2802381  8.54326701
F 7.57525502 1.47351204 6.78362498
F 6.10071008 0.29476657 7.76757337
C 3.19363083 0.34777598 3.62434991
F 2.4589936  1.32183055 4.25712126
F 3.12852246 0.53428212 2.30056451
F  2.63605151 -0.85492853  3.81421654
