30

O  -4.04944469 -10.07357203  -4.48296157
S  -5.34430736 -10.01310942  -5.17857696
O -5.29754656 -9.700119   -6.62501323
N  -6.50140233 -11.13449835  -4.95468378
S  -6.45286946 -12.48715232  -4.19622634
O  -7.80962259 -13.09301238  -4.10786208
O  -5.56096457 -12.57949229  -3.01401147
C  -5.65341548 -13.53990812  -5.60686576
F  -5.61306207 -14.86685115  -5.25370206
F  -6.32659342 -13.417649    -6.76795024
F  -4.37278743 -13.20358034  -5.79795624
C -6.16802946 -8.49038626 -4.45010442
F -6.57944545 -8.84133265 -3.17871819
F -7.269855   -8.09016641 -5.06709988
F -5.25537067 -7.49930876 -4.28356327
O  4.51886575 12.83591076  5.88060533
S  5.71113223 12.8030362   4.97972646
O  6.08653085 13.96665333  4.15031639
N  5.8798011  11.50507049  4.04028283
S  5.88771391 10.01578761  4.69099115
O 7.19504177 9.35659583 4.63117089
O 5.08173771 9.90141286 5.91027858
C 4.69539198 9.19262492 3.4035058 
F 4.88947914 7.85776231 3.49664159
F 4.97248889 9.59544561 2.18148107
F 3.40485521 9.43652029 3.68480368
C  7.18661166 12.67594506  6.248664  
F  6.9203874  11.92853391  7.31612494
F  8.29529945 12.10211407  5.67772525
F  7.52937951 13.85672523  6.67297755
