30

O  -4.14442641 -11.0592004   -1.32371766
S  -4.98891875 -11.46749604  -0.18594216
O  -4.57013494 -12.4470102    0.86741387
N  -5.85037412 -10.28457958   0.62156525
S -6.17704468 -8.93102537 -0.22534746
O -7.41088295 -8.41655852  0.43286533
O -6.19199851 -9.02475349 -1.70026699
C -4.73268159 -7.67571356  0.2874007 
F -5.12205644 -7.18417846  1.54786532
F -3.50819373 -8.14804538  0.34307614
F -4.88681749 -6.71462865 -0.60518051
C  -6.42958548 -12.40676093  -1.03689562
F  -6.70363785 -12.001005    -2.30686631
F  -7.56870973 -12.42964901  -0.30162018
F  -6.07445398 -13.68508826  -1.13453611
O  6.81098976 10.94472351  1.33831246
S  5.80127406 11.55266975  0.38499753
O  5.34201002 12.91795627  0.61747372
N  4.49454941 10.64195465  0.02400312
S 4.70825472 8.97717832 0.0654324 
O  3.35611532  8.37695084 -0.26004048
O  5.94882603  8.4364393  -0.59189078
C 4.8724871  8.64731602 2.01443365
F 4.19624857 7.5362657  2.36658492
F 4.42437129 9.63379267 2.74092708
F 6.1650698  8.42651369 2.24442114
C  6.85650774 11.44409048 -1.27126388
F  7.63488296 10.37182253 -1.31655532
F  6.02843752 11.46558795 -2.31551282
F  7.71989236 12.50243117 -1.32113635
