30

O  -4.59163357  -5.13223566 -13.41128232
S  -4.52321     -5.47196901 -12.00591935
O  -4.44453171  -4.39944758 -11.05460939
N  -5.50524428  -6.69831322 -11.52315859
S  -5.69629091  -7.98309228 -12.56000052
O  -6.41021089  -9.01164139 -11.66599822
O  -4.47347608  -8.36309817 -13.30045133
C  -7.02793138  -7.47365082 -13.91450741
F  -7.91241814  -8.54090848 -14.11497802
F  -7.77868094  -6.4344739  -13.38346264
F  -6.43451768  -7.13745131 -15.03077853
C  -2.68353682  -6.1674904  -11.80305964
F  -2.02699285  -6.24838555 -13.01686875
F  -2.73332567  -7.39183375 -11.14561647
F  -1.98736486  -5.32798093 -11.03553756
O  6.87104981  7.25005092 12.01772476
S  6.34656103  6.68819345 13.30257686
O  7.25540938  6.08042379 14.32768831
N  5.04235896  5.76285198 13.15939368
S  3.70595409  6.12160619 12.36169444
O  2.74691593  5.05018874 12.66742773
O  3.21079885  7.50321914 12.47059129
C  3.93338346  5.81586327 10.53056625
F 3.56610635 6.96729047 9.92290193
F  3.15812547  4.79785548 10.15332126
F  5.21167203  5.5333825  10.11406789
C  5.82923026  8.25345823 14.30712835
F  4.73692843  8.7904324  13.82255912
F  5.82199298  7.99867263 15.63901311
F  6.79287874  9.16848326 14.16957376
