30

O  -4.69618335 -11.29840684   0.72495766
S  -6.11072476 -11.21934276   1.14772493
O  -6.44789337 -11.50634798   2.52752547
N -6.8022483  -9.85019527  0.7458651 
S -6.26134415 -8.83044247 -0.44312939
O -7.16281067 -7.66219708 -0.46070438
O -5.69580112 -9.39131207 -1.71185582
C -4.7121097  -8.04086281  0.37358591
F -4.93008845 -6.73188     0.71680631
F -4.34730045 -8.66554464  1.51882749
F -3.7603413  -8.08335499 -0.51105269
C  -7.03728995 -12.48144634   0.21761921
F  -6.6421761  -12.64395961  -1.08091188
F -8.30063967e+00 -1.21210505e+01  1.91664138e-03
F  -7.05861367 -13.70732547   0.84918754
O  8.19552432 10.51116586  0.15588395
S  6.9544189  11.3182498   0.29203497
O  6.90827377 12.36868303  1.33428459
N  5.52401111 10.53458541  0.29828674
S  5.11947619  9.23770203 -0.61101371
O  3.74095313  9.43815402 -1.18225842
O  6.21442509  8.71295899 -1.4864586 
C 4.92330132 7.89018273 0.65712331
F 4.18981476 6.85545801 0.06009227
F 4.24405597 8.21847616 1.75955097
F 6.06391672 7.33586277 0.96649781
C  6.94939727 12.27113702 -1.41364116
F  7.32240497 11.43008788 -2.35828747
F  5.7646375  12.82246067 -1.6910268 
F  7.850954   13.28850449 -1.39743057
