30

O  2.02373888 -3.26326017  1.26123578
S  0.56679467 -2.99693405  1.1703604 
O -0.06674254 -2.05535206  2.14350464
N -0.06983646 -2.53725704 -0.25345947
S  0.46962464 -3.13121958 -1.66717699
O -0.5175124  -2.80472144 -2.74297219
O  1.04453817 -4.51189111 -1.76100966
C  2.08341084 -2.08507679 -1.99704215
F  1.78823931 -1.18656083 -2.99009156
F  2.35672638 -1.38255694 -0.90584949
F  3.16647176 -2.79756319 -2.35039621
C -0.26854783 -4.60570539  1.61230375
F  0.41607146 -5.64733141  1.06180106
F -1.5411435  -4.64683393  1.17597082
F -0.27668488 -4.82534027  2.95450635
O -0.19125836  4.70426585 -0.73923839
S  0.54590386  3.60492863 -0.10815022
O  1.80871125  3.21395105 -0.71251568
N -0.26921531  2.20746375  0.34425905
S -1.90757739  2.18289418  0.63048914
O -2.22765088  0.76501644  0.95262147
O -2.49052519  3.27817214  1.4456589 
C -2.67766066  2.46189569 -1.07017946
F -3.86612688  1.73191783 -1.18404486
F -1.83247622  2.11006794 -2.03984604
F -2.94032534  3.77264634 -1.24731957
C 1.07827484 4.42537257 1.46816899
F 0.0693707  5.16124454 2.07969242
F 1.62417082 3.53134131 2.28851859
F 2.10123623 5.32642592 1.1802006 
