30

O  3.58382205 -5.25265656  1.02085845
S  2.16206264 -5.6281671   1.00320297
O  1.28040562 -5.33849305  2.1735308 
N  1.37941554 -5.20867002 -0.40059576
S  1.97216424 -5.15623935 -1.86588209
O  0.78939237 -4.8878639  -2.73951155
O  2.87595434 -6.27005496 -2.12808982
C  2.94806194 -3.54559755 -2.01269839
F  3.09682849 -3.21294715 -3.28806942
F  2.35092185 -2.58545146 -1.31840117
F  4.15715901 -3.75872874 -1.4743016 
C  2.29721491 -7.50189091  0.8187731 
F  2.66747298 -8.00141591  2.03447037
F  3.37153692 -7.79363963  0.06218847
F  1.2775655  -8.20014332  0.35426257
O -1.74665743  7.5052467   0.61478641
S -1.16912489  6.21936182  0.89175396
O 0.23268763 5.90858341 0.48521771
N -1.95274467  4.78065816  0.50878057
S -3.51820881  4.84978387  0.15896282
O -4.04034563  3.46031405  0.3284435 
O -4.27518083  6.01552146  0.67310989
C -3.50963674  4.97110042 -1.75655696
F -4.61676675  4.55917152 -2.31104657
F -2.48005569  4.16896592 -2.19315641
F -3.26712609  6.28790761 -2.12732423
C -1.38119162  5.96329035  2.74517321
F -2.73176245  5.77992895  2.98674553
F -0.74914324  4.85939578  3.24162914
F -1.00472118  7.01272957  3.51374449
