30

O  -4.40949229 -10.77294221  -2.07480391
S  -4.87379543 -11.24849584  -0.7190005 
O  -4.03807054 -11.90502518   0.26159059
N  -5.97818429 -10.34589017   0.08004261
S -6.22870217 -8.8121439  -0.43106122
O -7.44805914 -8.38796531  0.35499084
O -6.20944028 -8.46824253 -1.94277252
C -4.73617979 -7.81223531  0.35866206
F -4.41933844 -8.32009812  1.55427884
F -3.65037114 -7.84467214 -0.43059882
F -5.02324072 -6.44126416  0.48460499
C  -6.03423276 -12.60662416  -1.3310034 
F  -7.12716866 -12.05698682  -1.85054692
F  -6.46275245 -13.47838484  -0.41833445
F  -5.35518254 -13.34828318  -2.27411661
O  6.46043812 11.64109108  1.42961252
S  5.58150918 11.57578703  0.24233681
O  4.89799389 12.85840035 -0.17461504
N  4.38317136 10.44796196  0.25712068
S 4.56801511 8.92253621 0.60537297
O 3.28152482 8.22863163 0.29345516
O 5.86111294 8.38339298 0.11432832
C 4.66460541 8.81091126 2.50799512
F 4.70698668 7.5259402  2.86154684
F 3.65153131 9.41881168 3.09321395
F 5.79561084 9.41146084 3.050352  
C  6.78890884 11.23870889 -1.23767476
F  7.4242107  10.03119947 -1.04520817
F  6.22148076 11.19264877 -2.40480246
F  7.70711066 12.16177152 -1.21496553
