30

O  -4.97915974  -4.55006515 -12.1668512 
S  -4.7073482   -5.58919794 -11.1173036 
O -5.19752561 -5.44395488 -9.75751264
N  -5.30543286  -7.11871708 -11.57045218
S  -5.10954541  -7.65547543 -13.0996025 
O  -5.75057914  -8.98342517 -13.0177256 
O  -3.75661524  -7.53590725 -13.70207019
C  -6.24025209  -6.59416067 -14.36484937
F  -6.57939568  -7.52717739 -15.35622529
F  -7.39518517  -6.13480577 -13.83645358
F  -5.62178058  -5.61878959 -14.99424497
C  -2.77165483  -5.89189268 -10.8819549 
F  -2.08722742  -5.64055605 -11.93024406
F  -2.56062133  -7.17018825 -10.54587583
F -2.45445871 -5.08110185 -9.87286035
O  6.60496896  6.72771392 12.08858293
S  5.89157232  6.29926718 13.32113777
O  6.60089266  5.34154786 14.21451685
N  4.43323588  5.62989916 13.15699479
S  3.42518053  6.20557597 11.95809243
O  2.10867033  5.60081977 12.26040052
O  3.63121754  7.59270075 11.42997639
C  3.86491148  5.13432321 10.40922177
F 3.05784027 5.57635664 9.41291097
F  3.6615271   3.81087888 10.6842444 
F 5.12883856 5.27809363 9.96017003
C  5.52018217  8.03783733 14.16648086
F  4.7063574   8.83959917 13.52027594
F  5.10070697  7.83997957 15.45757519
F  6.78067984  8.6208221  14.17364542
