30

O -12.75288466   2.45269132  -0.19958591
S -11.25802226   2.29628658  -0.18241764
O -10.51303249   2.83503968   0.97340717
N -10.75057635   0.80101854  -0.49292433
S -11.92332638  -0.25487118  -1.00743161
O -11.22865405  -1.52866657  -1.35193997
O -12.90572595   0.3052259   -1.97503581
C -12.70165189  -0.70173079   0.66428983
F -13.50100586  -1.80105311   0.41993047
F -11.73229627  -1.03161955   1.5806845 
F -13.42993381   0.27775747   1.16885723
C -10.65940638   3.49101669  -1.50583459
F -11.48558714   3.67498594  -2.48962046
F -9.42085558  3.16110978 -1.93004304
F -10.57900941   4.72380017  -0.83732223
O  9.81110603 -1.66399263 -0.09973748
S 11.16572243 -2.35859605 -0.12751164
O 11.25381142 -3.83756517  0.01577677
N 12.42581169 -1.84438436  0.79666317
S 12.71667428 -0.44490208  1.51021143
O 13.93454139 -0.6211951   2.34613132
O 12.63613832  0.7782931   0.66593656
C 11.24926354 -0.12541597  2.71712806
F 11.49448604  0.58504712  3.82458222
F 10.75619486 -1.3771228   3.12644057
F 10.24152031  0.46225532  1.99781676
C 11.69435088 -2.07147318 -2.03001509
F 10.96811275 -1.13742577 -2.61853462
F 12.99049969 -1.80099159 -2.21186987
F 11.50373485 -3.2435217  -2.74803179
