30

O -12.62463233   3.05625492   0.59649148
S -11.27019904   2.54401924   0.33883957
O -10.25245106   2.813668     1.37945471
N -11.05259755   1.08582551  -0.28984766
S -11.87115015   0.04800608  -1.23355671
O -10.91788737  -0.98187803  -1.73048944
O -12.87775736   0.6074588   -2.15418466
C -1.30801969e+01 -7.26779412e-01  7.05271760e-03
F -13.65072482  -1.795066    -0.61588056
F -12.33547213  -1.22745537   1.06621389
F -14.01054695   0.09833511   0.39990938
C -10.64905895   3.6233036   -1.08275558
F -11.44709075   3.73436638  -2.12818011
F -9.42423909  3.17900933 -1.4750704 
F -10.46228302   4.90136636  -0.60407503
O  9.93550213 -2.32355132  0.13098415
S 11.27977959 -2.75946206 -0.2742553 
O 11.57934951 -4.16415586 -0.73082509
N 12.45774044 -2.27525805  0.76768494
S 12.67760087 -0.73586719  1.28319895
O 14.05655308 -0.55687326  1.84346719
O 12.0529984   0.37848511  0.50131459
C 11.70573761 -0.59582269  2.93272686
F 12.15423898  0.35532767  3.7514305 
F 11.64589471 -1.79608088  3.69024538
F 10.40562643 -0.21116215  2.66640023
C 11.46795696 -1.74847406 -1.92392218
F 10.98097967 -0.47884741 -1.87431015
F 12.74270891 -1.67134786 -2.33738055
F 10.78362019 -2.3773445  -2.90068112
