30

O -12.96220724  -5.84257712  -0.7705961 
S -12.7833702   -4.98990257  -1.96436784
O -11.44431889  -4.67390623  -2.43328575
N -13.67321205  -5.46147328  -3.29307675
S -15.22929089  -5.64853744  -3.16769431
O -15.82729258  -5.95918179  -4.49230969
O -15.96179546  -4.67530793  -2.30227905
C -15.44340812  -7.14851106  -2.17754735
F -16.57145988  -7.91155266  -2.50040184
F -14.43367712  -7.98477831  -2.26072412
F -15.78773366  -6.82045814  -0.89394282
C -13.41413002  -3.3219387   -1.40779512
F -14.35648613  -3.42748821  -0.38794856
F -13.97588176  -2.60869588  -2.35693492
F -12.40099354  -2.50949527  -0.91458712
O 15.41477842  3.8412366   1.53814836
S 14.21089032  4.43979363  0.85706883
O 14.17600996  4.30189317 -0.62687443
N 13.84441707  5.91888714  1.27790964
S 14.03755918  6.59961324  2.69901356
O 13.48671717  8.01597091  2.66883446
O 13.6354111   5.67544171  3.81449776
C 15.96332871  6.84439788  3.06997644
F 16.09197407  7.77720419  4.03361147
F 16.61097347  7.30497111  2.03905819
F 16.44525035  5.68406256  3.46866915
C 12.81593309  3.37778121  1.50110066
F 13.00800949  3.2678694   2.82152634
F 11.58105858  3.80562048  1.20710864
F 12.94294656  2.12906138  0.95384226
