30

O -12.70108292   2.08476052  -0.7462954 
S -11.31673043   1.68467132  -1.02700003
O -10.2371985    2.58144131  -0.56406575
N -10.97045636   0.1280861   -0.74820245
S -11.63986557  -0.93661478   0.26658212
O -10.77850123  -2.11717638   0.242061  
O -13.10340584  -1.08860329   0.27650687
C -11.20989074  -0.17739063   1.97156859
F -11.64815186  -1.03024882   2.91936013
F -9.86468729 -0.13536347  2.10869597
F -11.6773407    1.02145442   2.14351884
C -11.25237609   1.61233891  -2.94315733
F -12.40416272   0.91586492  -3.27681346
F -10.25105245   0.87582262  -3.46153246
F -11.34803129   2.82136546  -3.60625797
O 11.13031631 -1.49259697 -1.79894591
S 10.98177006 -1.95241757 -0.39255119
O 10.07539117 -3.05312825 -0.04897535
N 10.60898003 -0.82411138  0.73588993
S 11.4807747   0.4508998   1.13402458
O 11.58930109  0.59110762  2.6095445 
O 12.68775979  0.7751074   0.36208179
C 10.12678394  1.77515737  0.82000294
F 10.54933197  2.91015575  1.37574432
F 8.98346636 1.34848027 1.47362292
F  9.76624597  1.96899067 -0.44096195
C 12.76125124 -2.55891581  0.08563893
F 13.73424663 -1.63205621 -0.23975996
F 12.86804748 -2.85855504  1.42040142
F 13.05926726 -3.68852586 -0.65072563
