30

O -14.54318738  -6.77068743  -0.4728252 
S -13.65364122  -5.77798342  -1.23298461
O -12.19481645  -6.05913163  -1.22306286
N -14.17125828  -5.35537769  -2.67714208
S -15.74237566  -5.43392448  -3.26946659
O -15.70255606  -5.08967958  -4.70110158
O -16.74739902  -4.82103424  -2.35260321
C -16.11394678  -7.25554373  -3.19288607
F -17.05934665  -7.64788998  -4.10202353
F -14.99786722  -7.95139905  -3.55073243
F -16.47997828  -7.620823    -1.97313439
C -13.72087961  -4.18810516  -0.27666113
F -14.91577666  -3.85952186   0.24999561
F -13.40440503  -3.23017867  -1.18227326
F -12.77421472  -4.15874147   0.72688939
O 14.6199014   5.12609568 -0.41128835
S 14.03699818  6.14294707  0.48305072
O 13.40913012  7.3769087  -0.06379957
N 14.89554468  6.63233314  1.79522175
S 15.49164671  5.40000712  2.81650995
O 14.79593831  5.5513065   4.15238773
O 15.84409313  4.07644253  2.24256438
C 17.25062777  6.07944465  3.20318488
F 17.84165901  5.35844555  4.16559507
F 17.12861029  7.3501002   3.64327263
F 18.03094451  6.03265698  2.092309  
C 12.5177068   5.20178256  1.16135916
F 12.82119778  3.950357    1.50455157
F 11.9613336   5.77846397  2.25242278
F 11.57631675  5.16272975  0.19267024
