30

O   1.40092567 -13.4573401   -2.57939645
S   0.45309429 -12.75908512  -1.70155176
O   0.71201628 -11.35931793  -1.26311302
N  -1.08611552 -12.80110372  -2.17005434
S  -1.57149726 -13.67446799  -3.41310357
O  -2.97620557 -13.24232418  -3.78607529
O  -1.24462454 -15.06749624  -3.34812462
C  -0.60404298 -13.01269437  -4.96337598
F  -1.51871722 -12.96576848  -6.04145935
F  -0.10280929 -11.80213364  -4.78592881
F   0.33501872 -13.8217323   -5.37555846
C   0.52302602 -13.78620143  -0.11907645
F   0.74428818 -15.11835571  -0.2743219 
F  -0.67648671 -13.69016176   0.5921381 
F   1.50244625 -13.31425809   0.6744565 
O  0.19798613 14.99303757  2.51760733
S  0.58607652 13.95538261  1.55111384
O  0.17329771 14.06988392  0.0980512 
N  0.26989348 12.41812551  2.06014122
S -0.08190369 12.15591207  3.62475114
O -0.19775308 10.65375631  3.74466144
O  0.76371087 12.92661081  4.54202554
C -1.8589112  12.8407054   3.92945375
F -1.94073517 13.81627247  4.85031997
F -2.60496718 11.79118767  4.32253219
F -2.39247064 13.21510787  2.72996745
C  2.47444029 14.19220483  1.25363556
F  3.35826801 14.02044677  2.24741289
F  2.75084615 13.32668904  0.32417257
F  2.61190548 15.49711821  0.7586993 
