30

O -13.29163961  -7.09253713  -1.15809296
S -13.25955835  -5.625052    -1.36864786
O -12.01928923  -4.88798591  -1.54632102
N -14.29109481  -5.10732076  -2.53940098
S -15.66565427  -5.94662313  -2.72998495
O -16.63399826  -5.12036195  -3.47842752
O -16.12770969  -6.72743928  -1.51317419
C -15.25471552  -7.2657126   -4.15548636
F -16.44768647  -7.92674302  -4.37265518
F -14.94585075  -6.55413649  -5.25271849
F -14.32353616  -8.1800085   -3.94040972
C -14.03575017  -4.90558899   0.26079009
F -14.49163948  -5.95140337   0.96873187
F -15.0657859   -4.03335298   0.11579198
F -13.04267713  -4.34993186   1.02977974
O 14.85392808  6.58049962 -0.35519972
S 14.11592163  7.02855539  0.80874307
O 13.74907812  8.4884194   0.85257638
N 14.58613618  6.68615103  2.32646253
S 15.10377203  5.17999517  2.78951555
O 14.38931735  4.70480342  3.99372971
O 15.51495911  4.22213992  1.72796793
C 16.74284687  5.66125675  3.53920794
F 17.35291369  4.56941056  4.14373837
F 16.57698224  6.5508531   4.51235609
F 17.61542262  6.12645156  2.62186793
C 12.41597069  6.14769591  0.67665224
F 12.52243955  4.79436744  0.91107665
F 11.59705663  6.64455781  1.6185013 
F 11.75984102  6.28904088 -0.48697043
