30

O -12.99964816  -5.35345596  -2.10291668
S -14.1345919   -5.19177544  -1.18805427
O -14.33347354  -3.90990426  -0.46357059
N -15.54026193  -5.59947315  -1.9277015 
S -15.40634636  -6.98619106  -2.72803068
O -16.72653914  -7.4576785   -3.21013406
O -14.6205374   -8.02036284  -2.0084275 
C -14.4789873   -6.74404464  -4.47622132
F -15.21887     -7.29241381  -5.39360733
F -14.39848229  -5.40129463  -4.77373372
F -13.18559449  -7.27024398  -4.55903964
C -13.64349264  -6.24698778   0.40821705
F -13.19856518  -7.51070949   0.33210357
F -14.63124966  -6.19926394   1.35834491
F -12.55948947  -5.52813455   0.83980929
O 15.23953874  7.8792912   1.39406875
S 13.85553171  7.7007497   1.83107127
O 13.13509023  8.88341659  2.37200141
N 13.52715319  6.5106954   2.86433351
S 14.24894846  5.04307946  2.98045536
O 13.79529605  4.48023148  4.2404276 
O 14.17403926  4.19325625  1.75346591
C 16.08469538  5.24875854  3.22851943
F 16.53929961  4.07003037  3.70629631
F 16.40428121  6.21801115  4.09528401
F 16.7789612   5.54097862  2.1118788 
C 12.97924018  7.30947389  0.12211388
F 13.52503423  6.19776817 -0.36835421
F 11.67907959  7.07377134  0.2874107 
F 13.10994041  8.3624219  -0.72601027
