30

O   1.09691913 -36.0285753   -9.93303405
S   0.24790287 -36.05705911 -11.09403547
O  -0.92305512 -36.94761673 -11.03870215
N  -0.39457277 -34.71237295 -11.83332584
S   0.64244545 -33.42203357 -11.84447298
O  -0.12999622 -32.46050065 -12.62260637
O   2.14944896 -33.74272277 -12.04791441
C   0.51258795 -32.5360068  -10.16739562
F   0.76553069 -31.21268286 -10.35313339
F  -0.72810728 -32.73001132  -9.69826989
F   1.40612997 -33.03767974  -9.33401897
C   1.38670451 -36.79830664 -12.46581355
F   2.64865305 -36.72491039 -12.01582297
F   1.29657701 -36.23854462 -13.66886343
F   1.09227399 -38.1270514  -12.62364586
O -1.73443313 33.05340662 12.43977375
S -2.06710235 33.85585352 11.22702388
O -3.00820087 33.18638121 10.26807107
N -0.81698547 34.52191499 10.30191293
S  0.40690542 35.42381072 11.08562434
O  0.98554779 36.37642848 10.1289428 
O  0.08950985 35.82959601 12.48763733
C  1.76977509 34.17982675 11.33531783
F  2.9271008  34.7285527  11.11373014
F  1.7952881  33.07254448 10.55809018
F  1.81533076 33.75552866 12.58682356
C -3.0859293  35.44618474 11.72862453
F -3.00234114 35.67464047 13.01855409
F -2.74920532 36.45314242 10.994094  
F -4.39470241 35.21826306 11.46683454
