30

O -6.32904091 -6.74150979 -1.06153537
S -5.75380127 -5.64141359 -1.91597944
O -6.41287435 -4.95537032 -3.01954365
N -4.95680054 -4.47804166 -1.05356781
S -4.20436465 -4.93568132  0.40604228
O -3.09076204 -3.88680926  0.61575578
O -3.85313813 -6.3762737   0.49146229
C -5.47676776 -4.58394539  1.75729396
F -4.79030927 -3.9950481   2.81794624
F -6.40918562 -3.74884476  1.30051311
F -6.0342459  -5.75151063  2.198625  
C -4.24484978 -6.50288933 -2.73045991
F -4.09490999 -7.70354662 -2.19720576
F -3.1626632  -5.73419065 -2.73241036
F -4.57291692 -6.69299228 -4.09904659
O 6.28280808 5.05338593 1.89673414
S 5.33897152 4.19772012 1.12316843
O 5.77422092 2.83025761 0.76776731
N  4.57352392  4.8478582  -0.18303717
S  4.3129382   6.51783134 -0.27806442
O  3.30246062  6.75901878 -1.32422522
O 4.42208076 7.1674577  1.09356501
C  5.92967088  7.25528158 -1.0083947 
F  5.70437027  8.59355113 -1.30889182
F  6.26462731  6.60849424 -2.13555474
F  6.90413287  7.23597564 -0.07827398
C 3.86524118 3.78831712 2.39329876
F 3.2931076  4.85047878 2.99277487
F 2.92378489 2.98602413 1.90313444
F 4.49469132 3.0364151  3.36810933
