30

O -2.93639077 -9.68768259  1.18295838
S -3.97585505 -8.75303529  1.73867199
O -4.11186236 -8.58349776  3.18555176
N -4.15799631 -7.16124599  1.08453565
S -3.38846576 -6.79335464 -0.32805853
O -3.74806729 -5.415168   -0.65574019
O -3.47757603 -7.8318127  -1.37101259
C -1.55993291 -6.62750906  0.09858694
F -0.82993972 -6.48024627 -1.00164658
F -1.36283862 -5.52352961  0.89802606
F -1.12618603 -7.68772955  0.76135442
C -5.52551771 -9.46327857  1.16044635
F -5.53112484 -9.49338007 -0.21327898
F -6.62568685 -8.771346    1.55598021
F  -5.61674363 -10.7209543    1.56932469
O 3.19845103 9.38587349 0.68962935
S 2.73241851 7.95065057 0.62641767
O 2.09270711 7.33125265 1.84678701
N 3.88007057 6.89996598 0.13146063
S  4.53706826  7.09567747 -1.35880932
O  5.21612267  5.82555394 -1.73171382
O  3.63542893  7.75753992 -2.35422288
C  5.95297893  8.38607977 -1.2153266 
F  7.06022009  7.79812957 -1.72495288
F 6.17727513 8.78608365 0.02304822
F  5.78584739  9.50723925 -1.95666622
C  1.24858733  8.04300507 -0.46972918
F  1.3561643   8.85515721 -1.54518428
F  0.88275781  6.84741399 -0.88762547
F 0.21808581 8.52414786 0.26118818
