30

O  -4.51826805 -14.14152856  -1.34969722
S  -5.20727289 -13.31193094  -2.43358077
O  -6.68169494 -13.2462592   -2.51385245
N  -4.74208705 -11.81852175  -2.58850035
S  -3.25746755 -11.17963499  -2.49662685
O -3.28751244 -9.74866818 -2.84853717
O  -2.20149447 -12.0166969   -3.16735531
C  -2.77674025 -11.20831109  -0.62239692
F  -1.70867351 -10.447497    -0.27584349
F  -3.84683308 -10.74365342   0.02523495
F  -2.48741783 -12.4344069   -0.17222436
C  -4.77365884 -14.18788541  -4.12655001
F  -3.52158975 -14.50137233  -4.15650946
F  -5.15667209 -13.43056909  -5.12673241
F  -5.55388648 -15.33721932  -4.15757368
O  4.14298611 12.31878352  4.04652662
S  4.64086632 11.41061976  2.97619082
O  5.6652721  10.44216632  3.33003528
N  4.82511359 12.14284384  1.56256162
S  3.81890004 13.4422328   1.31570534
O  4.10751094 13.75359661 -0.07291878
O  2.354654   13.52688127  1.72946676
C  4.64020148 14.83678689  2.43300065
F  4.64898421 15.92727707  1.60973059
F  5.93793215 14.57774744  2.74584454
F  3.96946745 15.08575307  3.51770198
C  3.05493111 10.27679146  2.7400083 
F  2.03559376 10.87312249  2.02314469
F 3.33220864 9.09972968 2.08177584
F  2.54664732 10.03982284  3.97197123
