30

O -9.6187522  -0.42293116 -5.38458636
S -9.01048402 -1.78018513 -5.72041641
O -9.57195525 -2.54396841 -6.90211832
N -7.38225138 -1.77834772 -5.9364845 
S -6.47072358 -0.93818793 -4.93441111
O -5.05446026 -1.30667102 -5.06346783
O -6.94219848 -0.87392392 -3.53391333
C -6.60164087  0.87651996 -5.63211394
F -5.44543173  1.58973541 -5.34350082
F -6.77752373  0.82027804 -6.99459119
F -7.57896719  1.55390013 -5.11314792
C -9.39569277 -2.94887916 -4.30057241
F -9.85611247 -2.2293084  -3.16879774
F -8.41504655 -3.69417642 -3.8661155 
F -10.53871404  -3.74808212  -4.59360765
O 9.13950747 0.1123638  6.71232752
S 8.93688641 1.4847035  6.29788723
O 8.95955223 2.59360699 7.31211995
N 7.69286797 1.89170064 5.38527885
S 7.02861938 0.8527702  4.2396123 
O 6.74568565 1.65535061 2.97889216
O  7.68647566 -0.4853653   4.17562916
C 5.27615201 0.51390312 4.7344794 
F 4.43936695 0.01775744 3.81457705
F 4.62831893 1.65326149 5.13965205
F  5.2974074  -0.45571158  5.76745422
C 10.40319916  1.81854792  5.15074916
F 10.68332678  0.86483593  4.27093597
F 10.28828216  2.98725223  4.4656343 
F 11.45430638  1.91925088  6.0426157 
