30

O -14.50226741  -3.19754428   0.41582627
S -13.73890684  -4.3419883   -0.14264851
O -14.00108902  -5.70290339   0.38855299
N -13.43098342  -4.60279641  -1.73682539
S -13.23625489  -3.31146559  -2.8093008 
O -12.01648456  -3.59921008  -3.59935523
O -13.64194937  -1.97040796  -2.26513851
C -14.76830442  -3.75298676  -3.86082785
F -14.55141372  -3.3393858   -5.10662385
F -14.99609479  -5.10915182  -3.89498498
F -15.89857947  -3.19330506  -3.46864692
C -11.97992774  -3.87903688   0.55977755
F -11.68113408  -2.61700045   0.27572251
F -10.92740256  -4.63133443   0.11634423
F -12.00053635  -3.97107828   1.89810258
O 14.49840118  3.82768616 -0.08335476
S 13.1183439   4.12519889  0.33746728
O 12.41547825  5.29059683 -0.37848782
N 12.6398627   4.03684464  1.90224103
S 13.64527788  3.52210338  3.03813837
O 12.82044635  3.33452453  4.22868971
O 14.60358825  2.40888113  2.7298103 
C 14.77115029  5.08319719  3.19865166
F 15.34351892  5.09938463  4.41120539
F 14.16994511  6.28119064  2.96830088
F 15.85303919  4.92445896  2.28907358
C 12.09045141  2.59123866 -0.23649511
F 12.73959946  1.48029053  0.08701607
F 10.84356512  2.60263885  0.33240807
F 11.81866063  2.61136047 -1.59463873
