30

O -9.46257639 -0.30551754 -5.00575229
S -8.77812801 -1.60541071 -5.37963402
O -9.4229074  -2.53388093 -6.3473566 
N -7.13273413 -1.60622685 -5.79650198
S -6.27902636 -0.59287855 -4.86480812
O -4.88173872 -0.80837581 -5.33736349
O -6.61367544 -0.57590799 -3.40201013
C -6.49287322  1.16753122 -5.45570076
F -5.3526237   1.96723047 -5.25928537
F -6.6681961   1.15545002 -6.82150981
F -7.57820011  1.69929251 -4.9277494 
C -8.98467489 -2.60403355 -3.76030791
F -8.64632824 -1.9273826  -2.64774098
F -8.25051921 -3.79815946 -3.76533737
F -10.26094986  -2.96889345  -3.71424551
O  8.70994794 -0.21637765  6.65791666
S 8.6073195  1.21308148 6.19692674
O 8.94669534 2.36003598 7.08252628
N 7.31214942 1.53397167 5.27517222
S 6.96536914 0.57969323 3.99493235
O 6.92903266 1.4793095  2.81822809
O  7.5295252  -0.80237877  3.94351662
C 5.08682442 0.44129229 4.42711446
F  4.53111225 -0.19568929  3.34271842
F 4.42675552 1.52445354 4.65662217
F  4.91667455 -0.34401983  5.55836728
C 9.93735997 1.34944814 4.8912069 
F 10.05671037  0.36363827  4.03687217
F 9.70124953 2.48749685 4.16047873
F 11.14842594  1.56320781  5.44270465
