30

O -1.54565821 -7.17504193 -2.62694636
S -1.45115169 -5.71159368 -2.96870883
O -0.78617219 -5.26602338 -4.23024348
N -2.96638458 -5.03060385 -2.83307373
S -3.99977992 -5.48425054 -1.61417008
O -5.20087672 -4.77535132 -2.03621039
O -3.44769717 -5.36747966 -0.22167179
C -4.38209283 -7.34397433 -1.95096339
F -5.72962404 -7.50222836 -1.65338306
F -4.17997767 -7.65199015 -3.20874085
F -3.75283202 -8.24621978 -1.15917676
C -0.26987122 -5.00662767 -1.61577944
F -0.0740081  -5.94043732 -0.6986463 
F -0.82111676 -3.951877   -1.12471301
F  0.96956085 -4.73918442 -2.15516886
O 1.08544815 7.09775062 2.79428592
S 1.86840136 7.26763383 1.55175487
O 1.46950028 8.26883573 0.59494545
N 2.24330977 5.95727579 0.72505664
S 2.91731804 4.66175212 1.49779559
O 3.21297904 3.65807317 0.47336355
O 4.03901332 4.84177417 2.49825402
C 1.51536199 3.96611119 2.55167497
F 1.59946363 2.60888566 2.39921573
F 0.30685843 4.37201789 2.10673354
F 1.66904165 4.38011066 3.79517368
C 3.59690912 7.90078281 2.13573639
F 3.81132069 7.46008383 3.39762469
F 4.67465358 7.48748869 1.40593715
F 3.62810325 9.26430723 2.17004412
