30

O   0.72330883  -9.58440767 -12.44032832
S   1.46377197 -10.84931718 -12.04846859
O   2.9664304  -10.67324609 -11.9075322 
N   1.14406502 -11.71296926 -10.71937037
S  -0.34696558 -11.51894596  -9.98460397
O  -0.29877717 -12.46456643  -8.84089739
O  -1.58640108 -11.40694941 -10.82242574
C -0.12632133 -9.82585955 -9.14531895
F -0.91341098 -9.78984961 -8.03214703
F  1.15589664 -9.56262862 -8.77609096
F -0.60075084 -8.82902562 -9.87914307
C   1.25063718 -12.11531569 -13.48066774
F  -0.04455408 -12.45820506 -13.67158317
F   1.80259729 -13.37060305 -13.174427  
F   1.8227429  -11.68461711 -14.59157988
O -1.72530874 12.81989569 10.16101081
S -0.51340279 12.69908164 11.01535023
O  0.4516512  13.8204479  11.02924256
N  0.39495867 11.38323627 10.94947876
S -0.22735512  9.92712677 11.25550535
O  0.61935763  9.03895751 12.12234643
O -1.74134199  9.94037875 11.46583761
C 5.37717980e-03 9.14487129e+00 9.63682856e+00
F -0.1403419   7.78461249  9.80817111
F 1.21556002 9.22677693 8.96201529
F -0.95075541  9.48554821  8.77387351
C -1.33319076 12.62592971 12.76993467
F -2.56187167 12.23311682 12.77564098
F -0.55927219 11.86194136 13.53519558
F -1.34633329 13.85458496 13.25415294
