30

O -16.09824416  -5.95664136  -0.30003249
S -16.18528821  -7.38165821  -0.52072172
O -17.04092813  -7.9836227   -1.56978807
N -14.72346656  -8.15795101  -0.64736174
S -13.40282147  -7.76432602   0.23383474
O -12.33503051  -8.72261963  -0.14154305
O -13.64161122  -7.5926566    1.6535453 
C -12.86003172  -6.14052273  -0.52396471
F -11.54601267  -5.94115295  -0.49583177
F -13.30378041  -5.84051867  -1.76975416
F -13.47112017  -5.09802642   0.2826937 
C -17.06382834  -8.06757319   1.06750108
F -16.93925675  -7.29342064   2.19293456
F -16.65368181  -9.34931546   1.33101371
F -18.35838926  -8.0422407    0.74192005
O 13.56277305  8.22239469  1.29217867
S 13.85383676  6.77898785  0.97939998
O 13.33403998  5.73790104  1.96546319
N 15.41457941  6.39082793  0.55912688
S 16.27352801  7.17474448 -0.62553013
O 17.67101692  6.56524593 -0.68298011
O 15.56888508  7.38734841 -1.97494119
C 16.7031948   8.90095363 -0.08543024
F 17.78070255  9.30861714 -0.80771529
F 17.16391631  8.965601    1.17435235
F 15.6699547   9.757759   -0.25556024
C 12.83135794  6.13073598 -0.53853842
F 12.55694746  7.06808537 -1.3994807 
F 13.58934053  5.24828494 -1.12123974
F 11.64941791  5.6947589  -0.01355042
