30

O -16.07904062  -6.05431708   0.27862553
S -16.12729249  -7.53129741  -0.21833179
O -17.21093239  -7.95136728  -1.17406725
N -14.74034505  -8.08314993  -0.73446507
S -13.33290081  -7.70752258   0.08473693
O -12.25588055  -8.54377779  -0.5251191 
O -13.36099257  -7.6288302    1.62536273
C -12.86007735  -5.96830333  -0.59647903
F -11.54004036  -5.78365196  -0.38962928
F -13.23478962  -5.85349295  -1.80057167
F -13.53740649  -5.07459028   0.20648005
C -16.6208803   -8.42597893   1.39194239
F -16.16929915  -8.01814272   2.55638696
F -16.50497597  -9.74559534   1.31236487
F -18.00277221  -8.17384324   1.53195861
O 13.40505669  8.60609372  0.4541994 
S 13.54786767  7.16952588  0.72540381
O 12.94406023  6.57606677  1.92287413
N 15.10967109  6.63626858  0.6515885 
S 16.14044177  7.05541157 -0.57759734
O 17.38406708  6.33601425 -0.3906873 
O 15.54815897  7.20698082 -1.86574776
C 16.75071361  8.8625732  -0.1212912 
F 17.85544758  9.04885229 -0.80091847
F 17.1338406   8.94493529  1.15319996
F 15.82857413  9.86172837 -0.38685758
C 12.69957345  6.25048445 -0.765209  
F 12.81400768  6.74757287 -2.07611796
F 13.09652344  4.93450217 -0.98105606
F 11.31962196  6.30685076 -0.49097799
