30

O -16.165912    -6.14350651   0.59296976
S -16.10287186  -7.48309485   0.06925714
O -17.19130955  -7.90803342  -0.80610796
N -14.74092107  -8.14514883  -0.46862896
S -13.24832372  -7.72222269  -0.07561627
O -12.30742561  -8.48505895  -0.87394343
O -12.96207407  -7.62953991   1.34767533
C -12.90858066  -6.03885     -0.55610661
F -11.54425849  -5.7715067   -0.26093081
F -13.08305067  -5.79635202  -1.83259372
F -13.57368238  -5.05428823   0.20036454
C -16.50382292  -8.555538     1.54583997
F -15.94565986  -8.17850642   2.72391201
F -16.22750124  -9.89160823   1.39385883
F -17.87804223  -8.45365673   1.71494122
O 13.32840418  8.83062141  0.02641707
S 13.45516878  7.40336678  0.4126845 
O 12.72679636  7.03595257  1.65687966
N 14.87617902  6.72998355  0.40869284
S 16.09075417  7.0735068  -0.53278987
O 17.26326264  6.19915084 -0.13866257
O 15.76745488  7.22841556 -2.00285542
C 16.73517829  8.8468089  -0.0739436 
F 18.02167292  8.74461797 -0.55051294
F 16.80876996  9.08181044  1.20300443
F 16.07799098  9.77564248 -0.74591219
C 12.47338883  6.25073466 -0.8917854 
F 12.60958992  6.62818167 -2.14172818
F 12.88523828  5.00308509 -0.81917254
F 11.26358714  6.42503279 -0.52520684
