30

O -0.58130737 -5.22147319 -1.49541055
S  0.77465621 -4.66514399 -1.09389973
O  0.94236754 -3.96743606  0.19097536
N  2.04247177 -5.61159633 -1.43567541
S  2.12340509 -7.05707516 -2.15701528
O  3.62241084 -7.13713624 -2.4899693 
O  1.1634391  -7.4654818  -3.22699176
C  1.89615361 -8.24057171 -0.71297018
F  1.7621603  -7.64983225  0.48783401
F  0.73253612 -8.90685312 -1.01698787
F  2.85197218 -9.17266674 -0.6375006 
C  0.88850231 -3.33004626 -2.48452101
F  0.42535955 -2.16396475 -1.97557359
F  0.24056664 -3.60652602 -3.57546861
F  2.2230425  -3.04240778 -2.76440442
O -2.58504528  5.17356533  3.18252098
S -2.38881364  4.7738058   1.7645731 
O -2.78647056  3.40759512  1.41970388
N -0.92767128  5.14805629  1.00905064
S -0.34716641  6.62378864  1.26669876
O  0.40823223  6.96729311 -0.00854792
O -1.14439656  7.68823716  1.92599377
C 0.91934039 6.20946491 2.53217786
F 2.15583739 6.4708343  2.07158381
F 0.89557146 4.90067965 2.84772032
F 0.73874765 6.97335545 3.6455924 
C -3.75789737  5.61155766  0.87839186
F -3.99707217  6.78183447  1.4208888 
F -3.41389201  5.65370248 -0.46787207
F -4.87704025  4.85444104  0.89910279
