30

O -1.64904483 -4.61142604 -2.32014372
S -0.5547129  -3.755598   -1.67145531
O -1.0269187  -2.91851433 -0.58602456
N  0.8705334  -4.47719784 -1.23622031
S  1.59812473 -5.82232982 -1.8800352 
O  2.4695108  -6.38697315 -0.78549264
O  2.13494089 -5.67725292 -3.2496775 
C  0.18369324 -7.13224568 -2.36278808
F  0.64533745 -8.32803482 -2.67319473
F -0.6477897  -7.27418637 -1.34749487
F -0.51334578 -6.62454583 -3.40726276
C -0.01842691 -2.43767194 -3.01874072
F -0.54044954 -2.57963273 -4.22893038
F  1.33735212 -2.34138001 -3.1556222 
F -0.53058422 -1.2076049  -2.55437215
O -1.23104878  3.87128669  4.12697751
S -1.24756718  3.47131113  2.68996098
O -1.86439941  2.19591633  2.31729216
N 0.07272291 3.57894897 1.85347647
S 0.76549428 4.99104519 1.55207385
O 1.71205986 4.82550258 0.41151437
O -0.09095335  6.20045978  1.59181292
C 1.97512664 5.46115772 2.91769747
F 2.40945006 6.60176689 2.40240548
F 3.00873793 4.60496034 3.08960166
F 1.51716149 5.70249271 4.19738778
C -2.42084941  4.77157558  1.95001857
F -2.49453922  5.94269843  2.69913823
F -2.19096075  5.12468956  0.66017297
F -3.6786551   4.2307825   2.01792472
