30

O -12.47923942  -2.5785994    0.43338427
S -12.29987466  -2.81491766  -1.01349181
O -12.81813375  -1.81872183  -2.01247097
N -10.89399868  -3.42856695  -1.53544568
S -9.75794327 -4.10430916 -0.4997385 
O -9.28532639 -5.3912381  -1.05668328
O -10.01677971  -4.087179     0.95431086
C -8.37800928 -2.78128365 -0.6963632 
F -7.28928286 -3.11138792  0.0102635 
F -8.03760711 -2.70797289 -2.00368868
F -8.7993932  -1.60300345 -0.29374076
C -13.40765102  -4.36153451  -1.3140896 
F -12.98937679  -5.37990156  -0.56338624
F -13.27831242  -4.64277773  -2.60639822
F -14.75365525  -4.17004834  -1.0207998 
O 10.51163818  5.54155512  0.78018711
S 11.5143467   4.71094649  0.04968146
O 11.99477167  5.23840252 -1.24943767
N 11.18820888  3.04184986 -0.19731579
S 10.59615071  2.25687364  1.16460887
O 10.89153438  0.79415686  1.14745678
O 10.77754277  2.97818667  2.45826056
C 8.65965424 2.33544121 0.92273283
F 8.03978827 1.6499649  1.96626323
F  8.40894642  1.73109545 -0.23950073
F 8.15875342 3.57359037 1.0076219 
C 13.14105098  4.73644868  1.1539564 
F 13.39298654  3.5732229   1.7429489 
F 14.19304152  5.0889504   0.37464511
F 13.01616915  5.73075708  2.13622918
