30

O -12.44019753  -4.08367199  -2.04507705
S -11.25850433  -4.9297342   -1.89571091
O -10.79249739  -5.78213374  -3.02103635
N -9.96905313 -4.32883861 -1.07201084
S -10.10538218  -2.83809473  -0.33522173
O -8.99581106 -2.88334813  0.61278404
O -11.43069597  -2.33335975   0.10137124
C -9.73825701 -1.66641798 -1.75936322
F -9.74694575 -0.39792247 -1.25422044
F -8.57878061 -1.97286007 -2.38036222
F -10.74802018  -1.67626761  -2.66514925
C -11.8762221   -6.24175049  -0.55806226
F -11.96000125  -5.79998456   0.67502083
F -10.94994541  -7.32530318  -0.57907965
F -13.09283818  -6.70902507  -0.96105051
O 8.99353999 3.31597811 0.86816069
S  9.98193252  3.89389856 -0.09392777
O  9.75790622  3.79632895 -1.57145293
N 11.50786652  3.67969509  0.19356464
S 12.27695253  3.69668038  1.59670683
O 13.6939103   3.37084075  1.3441921 
O 11.98647183  4.80622651  2.54047094
C 11.53068318  2.29917724  2.5475684 
F 12.38386627  1.99683844  3.59836986
F 11.259645    1.11322681  1.93923658
F 10.41796249  2.69022384  3.22269457
C 9.57962022 5.75284581 0.17262571
F 10.44129831  6.60680474 -0.27465006
F  8.3923802   5.97153048 -0.4259307 
F 9.47911651 5.97841685 1.47953948
