30

O -12.49212492  -2.74696328  -1.04749716
S -11.96036492  -3.90500606  -1.75731444
O -12.21285934  -4.01221463  -3.21366955
N -10.42726448  -4.37502684  -1.41542576
S -9.55615228 -3.64299224 -0.25248282
O -8.23871634 -4.37994913 -0.18423293
O -10.23850069  -3.24376394   1.01730078
C -9.10120723 -1.99599601 -1.05524426
F -8.12055573 -1.38314437 -0.31226071
F -8.58766445 -2.23083621 -2.26424967
F -10.15946276  -1.18466825  -1.15136561
C -12.84349977  -5.39356924  -1.03480058
F -12.38040971  -5.65579247   0.22009944
F -12.68162418  -6.52606035  -1.71501574
F -14.19047463  -5.14992567  -0.94411535
O 9.29544486 4.69032892 0.2003439 
S 10.66001551  4.51872259 -0.34634169
O 10.90583661  4.75659533 -1.76798603
N 11.45294052  3.12240432  0.10613305
S 11.49750236  2.57516236  1.60821049
O 12.39682342  1.42677607  1.62675381
O 11.55826547  3.63540635  2.62757862
C 9.85162154 1.73905236 2.04181935
F 10.195793    1.06328827  3.18060626
F 9.28277356 0.7841194  1.22865817
F 8.94914748 2.62043454 2.39070926
C 11.60614213  5.90485459  0.46873685
F 12.90171932  5.69915824  0.37518596
F 11.46258497  7.08931741 -0.29855665
F 11.17427068  6.20028793  1.66842298
