30

O  2.05389051 -5.5164277   0.6917935 
S  2.67051495 -5.18872448 -0.65556674
O  3.49685194 -3.98237489 -0.82248136
N  3.56929285 -6.46142126 -1.25495062
S  2.9756599  -7.8910121  -1.63394364
O  4.01804887 -8.69867249 -2.41765336
O  1.65898037 -7.71905438 -2.30395032
C  2.88682585e+00 -9.02301340e+00 -4.79211386e-03
F  1.68143627 -8.94511418  0.55715782
F   2.90167036 -10.37382706  -0.34156207
F  3.86058547 -8.76642676  0.76293458
C  1.23233874 -4.64667992 -1.9281658 
F  1.00382165 -3.31141041 -1.93133912
F  0.036865   -5.18975274 -1.57869084
F  1.5676707  -5.11950191 -3.12791239
O -3.60641301  5.534253    2.30720719
S -3.3887731   5.52537541  0.82417563
O -3.62474095  4.28849459  0.09224381
N -1.92264126  6.10814903  0.31275971
S -1.22539963  7.5182135   0.92494034
O -0.18000047  7.91048214 -0.07024917
O -2.1693305   8.5081839   1.49900034
C -0.13611028  7.04903521  2.39338618
F 0.94522983 7.90120173 2.39715219
F 0.47462816 5.85085145 2.19308588
F -0.86174751  7.01777995  3.52677613
C -4.72264634  6.71548357  0.00877913
F -4.41157306  7.98318672  0.30747513
F -4.83665372  6.58237045 -1.27848558
F -5.94828158  6.34035302  0.55087556
