30

O -3.55531238  1.82505394 -0.65839419
S -3.31783659  0.76605524 -1.68427424
O -1.91377786  0.66617847 -2.19376249
N -3.98627651 -0.77174782 -1.49992081
S -5.01708878 -1.14446508 -0.27700481
O -5.78403069 -2.30499717 -0.81315804
O -5.64120729 -0.09590008  0.57053043
C -3.88229358 -1.87615624  1.04865236
F -4.43603134 -1.65271685  2.27164048
F -3.73609816 -3.18229788  0.93761358
F -2.70822932 -1.23378188  1.07618151
C -4.21297673  1.30949169 -3.2872463 
F -5.52213215  1.00033426 -3.35380038
F -3.55428678  0.83858389 -4.29784462
F -4.14832771  2.68459642 -3.35840449
O  5.70612839 -0.95876262 -0.02315187
S  4.35854997 -0.39059674 -0.29012288
O  4.10471151  0.32236243 -1.56826679
N 3.72607941 0.53927806 0.89719484
S 4.18490709 0.56920157 2.44311634
O 2.97793007 0.6432949  3.30023347
O  5.37819472 -0.24744904  2.82355947
C 4.76062529 2.34172448 2.46101632
F 5.64091488 2.6902997  3.46112681
F 3.7414061  3.21487184 2.63852482
F 5.40478786 2.72307922 1.33396658
C  3.11427065 -1.77055855 -0.4361175 
F  2.71614897 -1.85948268 -1.72111921
F  3.60026722 -3.03334984 -0.08671394
F  2.00098372 -1.61214363  0.28594555
