30

O -12.67299204  -3.67811137  -1.67635013
S -11.55039084  -4.69843478  -1.76221057
O -11.35309468  -5.4221788   -3.07099124
N -10.08394635  -4.36026787  -1.02900873
S -9.86779914 -2.99596661 -0.22736296
O -8.62086353 -3.02948983  0.53804212
O -11.02341979  -2.32073013   0.38800509
C -9.47107483 -1.74365908 -1.58926812
F -9.23050437 -0.55157036 -1.03408927
F -8.43577093 -2.00473108 -2.41461141
F -10.60037064  -1.60521613  -2.35899208
C -12.1824646   -6.14578322  -0.76077608
F -12.20479883  -5.87994768   0.52423371
F -11.3636413   -7.2398856   -0.94185268
F -13.39434806  -6.45059511  -1.20334091
O 9.18109973 3.75644599 0.89240541
S 10.22075736  4.15747813 -0.10142282
O  9.9848226   3.79475953 -1.50518279
N 11.76829594  3.612409    0.26009212
S 12.12924421  3.40911947  1.82949418
O 13.49723445  2.81626242  1.77322719
O 11.76314999  4.4598623   2.82430376
C 11.10553281  1.94211879  2.45839017
F 11.88091931  1.09769177  3.28140747
F 10.47735291  1.14872055  1.56544131
F 10.16767978  2.50519256  3.26374092
C 1.00787069e+01 5.98791523e+00 8.98852597e-04
F 10.95689781  6.74781191 -0.72523264
F  8.78384315  6.25658149 -0.49339761
F 10.059943    6.43419851  1.29440774
