30

O -12.56247106  -3.70474582  -1.76911977
S -11.48976659  -4.74068225  -1.80931975
O -11.1673432   -5.448971    -3.08676581
N -10.1511821   -4.32790532  -1.03994258
S -9.9392176  -2.95994229 -0.20647825
O -8.68397183 -3.10286977  0.55855304
O -11.11955742  -2.335512     0.46138222
C -9.56459981 -1.72989774 -1.63608142
F -9.31128205 -0.5257747  -1.08889879
F -8.53176342 -2.07680688 -2.40757462
F -10.63162176  -1.66928494  -2.4917374 
C -12.11950487  -6.14046291  -0.71685424
F -12.06482538  -5.8123223    0.57778579
F -11.31389864  -7.26560861  -0.91941242
F -13.34552681  -6.46949707  -1.14883889
O 9.06255777 3.6124998  0.82039896
S 10.128597    4.06638497 -0.14739588
O  9.96423748  3.92656633 -1.61105963
N 11.72794687  3.69702352  0.29100218
S 12.22200346  3.40656545  1.82313671
O 13.6510748   2.92389731  1.74970961
O 12.01371175  4.46677846  2.86739796
C 11.13069004  2.03154646  2.51155769
F 11.95946857  1.22349436  3.26720908
F 10.54657275  1.20204564  1.64245747
F 10.17016169  2.52247972  3.35394852
C 9.96830608 5.92350679 0.03803022
F 10.81157819  6.69705263 -0.66360465
F  8.70688686  6.1610284  -0.51912775
F 9.93273925 6.44941378 1.2996424 
