30

O  -8.89399773 -12.9596351   -0.91619181
S  -8.86455069 -13.58512358  -2.26262047
O  -8.53027817 -12.82546388  -3.49678718
N  -8.02963712 -15.00107831  -2.20567655
S  -8.22465991 -15.97721252  -0.90326941
O  -7.47789195 -17.20158823  -1.26959121
O  -9.53325169 -15.98697247  -0.16701083
C  -7.15775305 -15.07580063   0.40398079
F  -6.59331814 -16.0598037    1.16460825
F  -6.15586396 -14.42886248  -0.23210554
F  -7.85331559 -14.1930581    1.20822453
C -10.68931696 -14.04276247  -2.57391293
F -11.35506604 -14.27571435  -1.5020795 
F -10.82071635 -15.21334688  -3.35094916
F -11.25558363 -12.9939359   -3.09069096
O  8.59843898 13.93754258 -0.25103269
S  7.95821655 13.56596105  1.02307059
O  6.6864959  12.77493854  1.04024407
N  7.89915892 14.68525615  2.20611012
S  9.03309811 15.90008948  2.11107131
O  8.71563288 16.83890678  3.24584585
O 10.45768006 15.52695387  1.8966221 
C  8.5875619  16.89674649  0.62647419
F  8.56871642 18.21648118  0.88961706
F  7.3878958  16.54771207  0.22744698
F  9.3908125  16.63034052 -0.34446366
C  9.25764476 12.32539155  1.6303185 
F 10.55723222 12.71533162  1.28101722
F  9.22234048 11.97629403  2.8548365 
F  9.11427553 11.28241268  0.75689384
