30

O -7.13911253 -1.98788789 -0.60361348
S -5.69619526 -2.03658782 -0.58945352
O -4.97591196 -2.96481636 -1.48790968
N -4.86484458 -0.70405318 -0.73824831
S -5.49732163  0.75632988 -0.4296002 
O -4.34347859  1.66666651 -0.48965504
O -6.45488722  0.86110328  0.72813022
C -6.40048158  1.22382893 -2.06044651
F -6.22487019  2.47167826 -2.21801267
F -6.09951481  0.36990734 -3.0581675 
F -7.82183476  0.96066652 -1.96889897
C -5.2115791  -2.65489103  1.20319718
F -6.17069776 -2.40621014  2.1355649 
F -4.05652604 -1.92344963  1.45917511
F -5.0485862  -3.95806261  1.19128351
O 5.12593616 2.62174727 1.28555926
S 4.7690583  1.23637674 1.60777201
O 4.44131464 0.86025379 2.9814101 
N 5.81068368 0.13298634 1.05825822
S  6.60036823  0.25936722 -0.43405164
O  6.51102057 -1.06143364 -1.07214704
O  6.36428467  1.45436277 -1.28322486
C 8.34047954 0.52460816 0.1960237 
F  9.36904023  0.25987579 -0.72387822
F  8.57584155 -0.23300497  1.32516548
F 8.45014846 1.79072719 0.56540615
C 3.21726037 0.7268658  0.57321547
F 2.05282668 1.48772703 0.69815809
F  3.43731169  0.73457904 -0.76163397
F  2.94026743 -0.46926059  0.9106222 
