30

O -1.45385291 -9.82661696 -0.87934914
S -1.86000045 -8.43221775 -0.89699963
O -0.84999775 -7.42819634 -1.29733783
N -3.16532363 -8.19640288 -1.67206887
S -4.40994142 -9.30185889 -1.52790762
O -5.59951733 -8.81334519 -2.19523037
O -4.41907134 -9.93500957 -0.15005728
C  -3.86805334 -10.81271703  -2.57301473
F  -4.96597991 -11.25526925  -3.26343563
F  -3.03704346 -10.61161774  -3.58883123
F  -3.33970637 -11.82034125  -1.8359229 
C -2.20000317 -7.83705937  0.88577086
F -2.72705177 -8.77080664  1.70892629
F -3.03441132 -6.83458476  0.76902206
F -1.04924715 -7.40652725  1.46166885
O 4.5618644  8.20950814 0.03432313
S 3.16893295 7.81269713 0.4377049 
O  2.39942762  6.65937491 -0.21654677
N 2.04866902 8.9235825  0.68182348
S  2.37359538 10.38687398  1.38704049
O  1.12595205 11.02807302  1.56573507
O  3.40426913 10.47761399  2.45488319
C  3.15836746 11.3092403  -0.19291304
F  2.82377827 12.60798029 -0.1495959 
F  2.55125157 10.83768353 -1.30664917
F  4.44862393 11.18043871 -0.24861728
C 3.44303381 7.13708294 2.29147098
F 4.56109497 7.66754691 2.88511367
F 2.37960834 7.31868981 3.17199364
F 3.53073242 5.7261847  2.25900077
