30

O -5.70398067 -2.22697474 -1.84723952
S -4.40909517 -1.65179144 -1.44836712
O -3.26972232 -1.84078514 -2.39616174
N -4.38267545 -0.1982408  -0.86578198
S -5.35255514  0.67935517  0.06544287
O -4.93390205  2.10369641 -0.15933644
O -5.68007583  0.11601031  1.41785964
C -7.07563777  0.55870381 -0.88477998
F -7.8630276   1.50781283 -0.45788099
F -6.94891989  0.75315438 -2.26768933
F -7.740442   -0.65888894 -0.80499956
C -3.70963071 -2.64333112  0.04613385
F -4.57563141 -2.65990845  1.04202944
F -2.58246884 -2.13225241  0.40434879
F -3.45995739 -4.03736857 -0.23135166
O 4.64490967 1.8924997  2.37675641
S 4.32063256 0.59993299 1.81774639
O  4.08330108 -0.4978595   2.79568556
N 5.18937066 0.0130789  0.56460981
S  5.91260817  1.04679022 -0.46638334
O  5.83174758  0.51287942 -1.82133939
O  5.79726582  2.45614344 -0.1377882 
C  7.69474845  0.62210789 -0.13027891
F  8.43969027  0.85463107 -1.27249406
F  7.98412698 -0.66165231  0.20396257
F 8.20006845 1.50813111 0.83565441
C 2.67296649 0.91420323 1.01165858
F 1.95137633 1.56170997 1.91771252
F 2.90655711 1.75234188 0.01259959
F  2.05835263 -0.24412929  0.67967181
