30

O  1.27579669 -7.79253365  0.08664538
S -0.14904425 -7.90588828  0.53549373
O -0.30872863 -7.81231694  1.99875018
N -1.1775783  -7.03189658 -0.40139758
S -0.8991336  -6.6451679  -1.95906498
O -2.02715889 -5.80707247 -2.40606453
O -0.36693135 -7.84564622 -2.69656426
C  0.50224248 -5.38799329 -2.02484558
F  0.17153465 -4.45711286 -3.01689286
F  0.71348021 -4.72465015 -0.85417222
F  1.5898446  -5.93370898 -2.40385513
C -0.56452118 -9.75735178  0.25231048
F   0.14444373 -10.23235174  -0.7797474 
F  -1.85921673 -10.01212101  -0.04777886
F  -0.28794403 -10.50096316   1.37205037
O  0.77295684  8.73622524 -0.89489069
S -0.41271614  7.83969622 -0.72091038
O -1.51855474  8.06665638 -1.66712665
N -0.99443221  7.84001523  0.88582122
S -0.1253638   7.35341943  2.16755076
O -1.02130109  7.35517935  3.33277844
O 0.65613547 6.13494785 1.88185397
C 1.1246303  8.72908336 2.80994399
F 1.93939528 9.26944743 1.92122578
F 1.96494532 8.25068615 3.77296752
F 0.23951925 9.64768848 3.34797599
C  0.08494515  5.99861029 -1.05005078
F  1.22481494  5.59910459 -0.40984242
F -0.92323458  5.22836952 -0.6762749 
F  0.23117459  5.79764552 -2.35588861
