30

O  1.58939168 -7.74178362 -0.18803665
S  0.18598872 -7.84141286  0.29203415
O -0.066881   -7.64499988  1.74393837
N -1.08861694 -7.21586107 -0.53142508
S -0.88667879 -6.73141037 -2.0426273 
O -1.9619133  -5.89637629 -2.55286957
O -0.3949712  -7.72658658 -3.02778913
C  0.65439562 -5.4922033  -1.78769329
F  0.67545552 -4.46926069 -2.60562016
F  0.65080921 -4.97461064 -0.53989799
F  1.8773317  -6.15117372 -2.05808534
C -0.337444   -9.69094179  0.10933529
F   0.02733643 -10.27644344  -1.03672159
F -1.67222774 -9.85574563  0.22242904
F   0.25787304 -10.40031714   1.06533835
O  1.1508559   8.41057125 -0.79316866
S -0.294046    7.99112415 -0.65219197
O -1.3194072   8.44520921 -1.64013294
N -1.04495274  8.16795786  0.84362906
S -0.57779157  7.54846085  2.29771046
O -1.67537916  7.82718418  3.2481466 
O 0.08256463 6.18456812 2.20531017
C 0.88676568 8.40689296 3.0980482 
F 1.98492768 8.28768829 2.21981615
F 1.1646311  7.82368916 4.32281661
F 0.73493745 9.73402269 3.28969763
C -0.19613075  6.13016654 -1.19167211
F  0.9913492   5.64477043 -0.91512133
F -1.14239069  5.22021976 -0.84817647
F -0.25578247  6.28660157 -2.5470205 
