30

O -3.77001755 -0.87840903 -3.25966844
S -4.14586942 -1.81341103 -2.13180259
O -3.5394915  -3.20379267 -2.11636281
N -4.04317619 -1.2285205  -0.63011202
S -4.36980335  0.33238664 -0.43471904
O -4.3782236   0.6111348   1.04399035
O -5.55691242  0.72452959 -1.29153828
C -2.92920887  1.41859347 -1.13141961
F -2.61767234  2.24979286 -0.10920787
F -1.85275882  0.67865308 -1.48294539
F -3.27019418  2.1174308  -2.20200222
C -6.03363795 -2.29609858 -2.25344361
F -6.83130925 -1.39619021 -2.86433415
F -6.47664716 -2.53774978 -0.98285154
F -6.11120849 -3.51078667 -2.88353947
O 6.25524431 1.31514117 0.97917471
S 4.93823378 1.31565148 0.26395855
O  4.70805507  2.36191028 -0.77124937
N 3.57880104 1.27049266 1.11191394
S 3.31138788 0.2885578  2.36904067
O 1.83079404 0.26932921 2.52528997
O  4.10466019 -0.99804503  2.49348339
C 3.94104347 1.24639121 3.9342479 
F 3.59155769 0.66512316 5.12263852
F 3.46498539 2.45870598 3.98885903
F 5.33842315 1.2474393  3.90545211
C  5.14949467 -0.38517341 -0.60631184
F  5.51412962 -1.3524164   0.21357944
F  4.05300154 -0.77745155 -1.25568617
F  6.14631923 -0.19321863 -1.54443416
