52

O -1.78890067  2.43324121  2.33911008
S -1.87012598  1.59039779  1.15552302
O -2.84034467  0.48053038  1.11209234
N -0.55749966  1.04536472  0.46105576
S 0.86798039 1.82379441 0.70414864
O  2.01140491  1.19211751 -0.00606232
O 0.90733828 3.30821271 0.59257784
C 1.13989604 1.43030073 2.57758316
F 2.40682866 1.32613152 2.92565443
F 0.56872305 0.23996533 2.93365291
F 0.61369384 2.40997832 3.31497811
C -2.77714177  2.75302549 -0.10857408
F -1.97832835  3.76739198 -0.49676754
F -3.2998607   2.11369225 -1.16766807
F -3.81107252  3.29469854  0.54921423
C -0.3138777   4.32488765 -2.98389851
O -1.0976582   3.61256847 -3.93238166
C -0.60238035  2.29730093 -4.21247412
C -0.91328482  1.32576228 -3.12386892
O -0.15798859  0.17566215 -3.51870446
C -0.05795409 -0.66373643 -2.4200188 
C -1.36722293 -1.34135521 -1.82155124
O -1.16138826 -2.70248674 -1.43418759
C -0.94974177 -2.78340221 -0.0179552 
C  0.37834159 -2.11502435  0.42762039
O  1.02740273 -2.86778228  1.44985078
C  2.42679898 -2.78749777  1.63248568
C  2.76058843 -2.62504683  3.13437035
O  2.56063106 -3.83203512  3.85598874
C  1.10905496 -4.11845466  4.1568847 
H -0.34925942  3.82579579 -2.01019058
H -0.66131551  5.3779365  -3.04612764
H  0.73228628  4.1889695  -3.274895  
H  0.5425023   2.24274238 -4.35392774
H -1.09382076  1.90184994 -5.12255868
H -0.57814699  1.60340611 -2.11209737
H -2.00054602  1.21974767 -3.01232494
H  0.64051215 -1.4372332  -2.79407117
H  0.42157513 -0.12260958 -1.58014444
H -2.0952872  -1.38146749 -2.67169952
H -1.82732773 -0.75208462 -1.0188628 
H -1.79762865 -2.37663494  0.5233468 
H -0.86490389 -3.89806646  0.11309493
H  1.01133809 -1.97376654 -0.46275605
H  0.22030262 -1.10225565  0.7660321 
H  3.0430048  -3.64797267  1.26403998
H  2.88333557 -1.8462486   1.18215277
H  2.27084341 -1.77210735  3.67680778
H  3.85170452 -2.47185718  3.2384685 
H  1.06469885 -5.22837241  4.20808835
H  0.79982367 -3.6798263   5.13084013
H  0.55239688 -3.77814765  3.27810594
