52

O -3.64765318  1.4393186   3.10535908
S -3.64648982  2.75691923  3.8717212 
O -4.99069121  3.29346059  4.18014552
N -2.56741427  3.82687736  3.32849192
S -1.26328936  3.26032144  2.51022586
O -0.86159885  1.84061663  2.78553361
O -1.28722743  3.89743592  1.14717137
C -0.09476985  4.45528902  3.49674796
F 1.03562491 4.51803077 2.7459096 
F 0.30495768 4.02701662 4.74977659
F -0.57388129  5.72878985  3.58253833
C -3.05542412  2.16636499  5.5757603 
F -2.92685737  3.26618643  6.35246542
F -3.86784429  1.35217419  6.23902072
F -1.8303146   1.65213587  5.49599526
C  4.72987701 -2.81453658 -4.3186856 
O  3.7346798  -2.31063153 -5.27062237
C  2.74833014 -1.45774255 -4.629892  
C  1.69504354 -2.29184194 -3.82516283
O  2.16857642 -2.61647686 -2.53708485
C  1.52119308 -3.73988526 -1.95789783
C  2.14816257 -3.75331044 -0.57546395
O  1.51262747 -2.93096809  0.34718139
C  1.70310981 -1.4902236   0.35792798
C  0.38668536 -0.7730963   0.606648  
O -0.35446694 -0.86437634 -0.53754834
C -1.62157169 -0.25771648 -0.55653965
C -1.73521959  1.17874602 -1.04694477
O -3.11081485  1.44159809 -1.1159934 
C -3.62256446  2.01573355  0.0590494 
H  4.77059833 -2.37488192 -3.31289744
H  4.53222545 -3.92766128 -4.2676811 
H  5.77366043 -2.62356419 -4.6856561 
H  2.18908493 -0.85912567 -5.43280419
H  3.30263734 -0.84993768 -3.85843248
H  1.40228942 -3.22675725 -4.37079737
H  0.62860729 -1.77197782 -3.74353767
H  1.80219885 -4.70831879 -2.51273557
H  0.38936508 -3.61340093 -2.08899831
H  3.26457377 -3.51711726 -0.77288449
H  2.08651827 -4.85137896 -0.28041015
H  2.40417089 -1.12651518  1.16489894
H  2.21344115 -0.9936179  -0.44251161
H 0.67379663 0.24288197 0.86041484
H -0.18227382 -1.07982463  1.52137296
H -2.33029143 -0.92721441 -1.08014652
H -2.07415189 -0.24405015  0.46297483
H -1.11763654  1.80209242 -0.33367684
H -1.23510214  1.3537685  -2.02097257
H -4.70555132  2.12038658 -0.0764829 
H -3.08280119  2.99611588  0.22995848
H -3.33613413  1.36388947  0.87517136
