52

O -0.18284756  3.73947456  5.3150113 
S 1.18764085 3.59069478 4.82898129
O 2.16792814 4.4918608  5.42477238
N 1.37437486 3.4395376  3.20156111
S 0.21010005 3.4427004  2.09212136
O -1.82804913e-03  2.21349787e+00  1.29813028e+00
O -1.02644761  4.14173251  2.49077686
C 1.05637781 4.53202141 0.82238053
F  0.10066921  4.64481182 -0.22572505
F 2.10046264 3.8882024  0.28670397
F 1.31553437 5.74909062 1.21849496
C 1.68309648 1.91698797 5.37449291
F 2.9700494  1.74249299 5.20173503
F 1.3218854  1.80393933 6.67144695
F 1.16663135 0.86974949 4.67774288
C  3.24704207 -2.09723848 -1.9155316 
O  2.28951729 -3.01084317 -1.46702704
C  1.67204791 -3.62733369 -2.56973238
C  0.86925384 -4.83923069 -1.98166239
O -0.24077276 -4.54922888 -1.21314839
C -1.40273694 -4.1812342  -1.92022538
C -2.23663729 -3.35891832 -0.93079845
O -1.78409312 -2.07450992 -0.75957139
C -0.51852658 -1.96189417 -0.16309509
C -0.13194375 -0.45472083 -0.29689424
O -0.40846896 -0.0198018  -1.63972129
C -1.52796773  0.68323909 -1.93928255
C -1.333369    2.15140218 -1.48060793
O -2.6545196   2.62898929 -1.28145908
C -3.03010864  3.24878887 -0.07307568
H  3.4322888  -1.46113694 -1.05516181
H  4.16575966 -2.64517073 -2.32662098
H  2.78090332 -1.4027822  -2.67368124
H  2.36780149 -4.20909535 -3.22621089
H  0.9314346  -3.04360203 -3.19224488
H  1.59301428 -5.48578882 -1.43100699
H  0.48157821 -5.43357909 -2.92278447
H -1.9652967  -5.0878566  -2.24653605
H -1.16178153 -3.55593005 -2.77592013
H -2.31530016e+00 -3.98776288e+00 -2.48482109e-03
H -3.34674462 -3.33053265 -1.24969823
H -0.53124097 -2.3892268   0.87622888
H  0.2560647  -2.53057059 -0.72485733
H  0.90604236 -0.36295734 -0.09530586
H -0.70564985  0.03178367  0.49440453
H -1.79271751  0.68545932 -2.99401784
H -2.31035826  0.29932653 -1.28589179
H -0.74143689  2.29242598 -0.53066263
H -0.84711708  2.73441427 -2.32169303
H -4.1645138   3.05482836  0.05312998
H -2.87831133  4.36397704 -0.15508179
H -2.40676278  2.7195171   0.7393035 
