52

O -3.46840538 -0.61910774 -1.52812979
S -2.76003847 -0.238615   -0.29060947
O -2.96103718  1.13340852  0.34435793
N -1.15272321 -0.5984629  -0.18611899
S -0.48185475 -1.52864403 -1.30725398
O  1.02161083 -1.28095365 -1.29730606
O -0.82653319 -2.9738263  -1.33790938
C -0.89410603 -0.96648784 -3.1474082 
F -1.92555322 -1.61536729 -3.64226967
F  0.15972777 -1.28346149 -3.93659954
F -1.05544285  0.35778466 -3.40407985
C -3.36771745 -1.4411264   0.99857784
F -4.69959782 -1.36361682  1.05616542
F -3.00527422 -2.70348713  0.73017993
F -2.84004333 -1.02933372  2.20347107
C  1.33154822 -4.95714402 -0.1172219 
O  2.59027821 -5.03971034  0.52874703
C  3.11809077 -3.91110131  1.09827103
C  1.97809696 -2.99630676  1.74995802
O  2.52065445 -1.94976098  2.48986603
C  2.08232158 -0.6226871   2.06177768
C  0.82051201 -0.24592039  2.91000482
O 0.66477331 1.18229402 3.06445898
C -0.00621263  1.83095484  1.97326667
C 0.87574931 2.62705291 1.02887991
O 0.09220959 3.53396196 0.32582089
C -0.24547269  3.12434828 -0.99976838
C -1.38806551  3.97564544 -1.55930392
O -1.18244843  5.35832662 -1.62872287
C -0.56017149  5.84641985 -2.79980234
H  1.28975744 -4.07515809 -0.84930846
H  0.46592285 -4.89145847  0.57200192
H  1.13913202 -5.89398162 -0.65878494
H  3.49960613 -3.21761932  0.31506659
H  3.93197379 -4.24328224  1.75904539
H  1.36724994 -2.59666271  0.93237146
H  1.27146173 -3.70167845  2.30453365
H  2.86170587 -0.05757286  2.45285757
H  2.0100087  -0.60933954  0.95573939
H  1.00140304 -0.59567222  3.9617155 
H -0.12889177 -0.75045686  2.49298889
H -0.69733581  1.08406406  1.42762735
H -0.76904198  2.53192152  2.3948269 
H 1.72596181 3.0660868  1.61073489
H 1.43031787 1.89493459 0.27700992
H  0.69538419  3.10302479 -1.60299034
H -0.56920129  2.11629265 -0.92822404
H -2.27925009  3.80729822 -0.91853951
H -1.60437441  3.38829334 -2.50785253
H -0.81090107  6.90668739 -2.94981373
H  0.50772309  5.85059791 -2.67589361
H -0.77348725  5.27860522 -3.74641119
