52

O -1.2169954   2.19114488 -0.93869026
S -1.59621559  0.89854072 -1.5840053 
O -0.42008452  0.07395936 -1.97945723
N -2.81388464  0.00750293 -1.08410299
S -3.94202699e+00  4.66612878e-01  6.45216811e-05
O -5.07442953 -0.44971083 -0.02674307
O -4.29146201  1.9138894  -0.12345677
C -3.12422383  0.31113415  1.69140313
F -4.11189609  0.56446517  2.55965136
F -2.75440145 -0.95289137  1.90259808
F -2.11138888  1.20317948  1.96384276
C -2.17819082  1.65383488 -3.22387541
F -3.05282833  2.6151608  -2.92663027
F -2.7637892   0.75193362 -4.00913297
F -1.03644297  2.14203514 -3.95014594
C  4.23033896  1.96450602 -3.18317997
O  3.16471405  2.89855899 -3.19919479
C  1.96777221  2.44691633 -2.53805739
C  2.01468156  2.50011772 -1.04548101
O  2.82572859  1.48549827 -0.56641124
C 2.65816589 1.36933238 0.83953556
C 1.35065236 0.64966335 1.24082026
O 1.48253095 0.36996604 2.64855826
C  0.46001367 -0.39060901  3.23067158
C  1.06613544 -1.80761431  3.51662991
O  1.28229417 -2.48390188  2.29077587
C  0.39297126 -3.46324911  1.85551536
C -0.23719128 -3.12642354  0.50701495
O -1.26431337 -4.08577042  0.16721646
C -2.46877909 -3.52909164 -0.25191816
H  5.1027126   2.42493435 -3.71765147
H  3.9610544   0.99181781 -3.63207797
H  4.49059545  1.70120284 -2.15417023
H  1.02412146  3.03965443 -2.81610352
H  1.73073598  1.36703912 -2.82760598
H  0.99370276  2.31564976 -0.7345259 
H  2.42335959  3.44636849 -0.6306682 
H 3.49108025 0.76232741 1.22684721
H 2.74606901 2.32351956 1.41164352
H 0.43500077 1.16472384 0.99989851
H  1.31745113 -0.34786792  0.67071147
H -0.49163877 -0.21447256  2.64821595
H 0.29028465 0.12144922 4.16108742
H  2.07892166 -1.59000057  4.0515476 
H  0.29543323 -2.32944174  4.22223392
H  0.83562792 -4.46782344  1.74270256
H -0.5172893  -3.55635442  2.45219747
H  0.48942602 -3.1581053  -0.31128762
H -0.6186576  -2.10120605  0.62981681
H -2.45453681 -3.27131383 -1.36727491
H -3.29368711 -4.20494219 -0.11986077
H -2.76722239 -2.60584919  0.31050883
