52

O -0.54972718  1.03906893 -3.32730014
S -0.27563705  0.03943343 -2.21044787
O -1.26784823 -1.04443165 -2.11460517
N  0.10319755  0.69086258 -0.76493817
S  1.09256935  2.01180546 -0.83936505
O 1.84342687 1.98986955 0.42918073
O  1.81169403  2.2381569  -2.09312902
C  0.00835428  3.51844673 -0.51499289
F -0.84976573  3.32826009  0.47138171
F -0.66327779  4.02505217 -1.55892921
F  0.8654454   4.45961191 -0.09808193
C  1.15696441 -1.0197984  -2.8749023 
F  1.40506297 -2.08969455 -2.08202218
F  0.77652877 -1.49036998 -4.03744854
F  2.28815706 -0.33529437 -3.16719844
C  4.80705626  0.74009659 -1.17519204
O  5.5948975  -0.16711129 -0.38380768
C  4.7892536  -0.75063702  0.66885027
C  3.51030562 -1.46111752  0.33504619
O  2.92298466 -1.90325026  1.50213224
C  1.55905932 -1.51901216  1.67808769
C  0.56404901 -2.6049738   1.12729194
O -0.63884723 -2.71746174  1.87551322
C -1.84002047 -2.30155652  1.25189198
C -1.99753732 -0.74044589  1.48877251
O -3.17408704 -0.25400017  0.93129681
C -3.10642241  0.83457429  0.05231085
C -4.60811091  1.25529434 -0.2097427 
O -5.20037803  1.92133329  0.91249417
C -5.69523948  1.02137588  1.88751849
H  5.53481612  1.21710505 -1.90122439
H  4.35099826  1.50147385 -0.47319844
H  3.99327667  0.25599422 -1.72951414
H 4.63485682 0.13820525 1.32166882
H  5.48822901 -1.49607251  1.08630603
H  2.75542559 -0.72575939 -0.15023646
H  3.7359871  -2.26852774 -0.47995944
H  1.49955182 -1.51154067  2.79779173
H  1.39434895 -0.56237615  1.18653957
H  1.11706996 -3.58817504  1.2292511 
H  0.30578533 -2.46173326  0.05822078
H -1.81609623 -2.44819857  0.13845554
H -2.74319084 -2.7560568   1.65525026
H -1.88004165 -0.55311057  2.60050792
H -1.11952932 -0.30883391  0.94562036
H -2.63671686  1.67145962  0.59591119
H -2.54300072  0.63853927 -0.89811658
H -5.19309154  0.28657648 -0.53888265
H -4.60168136  1.94910568 -1.09686122
H -4.93676769  0.3833901   2.23454919
H -6.11647109  1.57545751  2.74387017
H -6.45586611  0.34899075  1.5143852 
