52

O -1.72323483  2.13294969  2.49958353
S -2.14382324  1.58655849  1.19976077
O -3.03718639  0.39557541  1.20563568
N -0.93304302  1.33754233  0.15010115
S 0.32786198 2.30940841 0.17080947
O  1.24284281  1.56184241 -0.70227865
O -0.07613244  3.72496229  0.01721237
C 1.21772228 2.23523274 1.91090359
F 2.55069853 2.36672957 1.56539228
F 1.03492679 1.11457164 2.63711411
F 0.90824438 3.22960935 2.74664636
C -3.21579985  2.94638939  0.33272728
F -3.25768163  4.04946306  1.08185839
F -2.75491571  3.22906319 -0.87362807
F -4.46781141  2.51609918  0.18380773
C  0.40610704  3.63936638 -4.1062245 
O -0.53232576  2.97124146 -4.92092777
C -0.2384015   1.56108944 -4.87000428
C -0.54444325  0.89391725 -3.46592668
O -0.65725999 -0.53110817 -3.57952753
C -0.25697069 -1.25864696 -2.4813949 
C -1.46996329 -1.83613579 -1.69705811
O -1.11290033 -3.00355347 -0.91355998
C -0.80482426 -2.71786656  0.43325972
C  0.67146594 -2.32808092  0.65746751
O  0.81766116 -2.28484618  2.04382645
C  2.13535819 -2.08202935  2.43539154
C  2.16158494 -1.74132718  3.93454011
O  2.45442802 -2.89796089  4.72271848
C  1.40952372 -3.92844244  4.7984263 
H  0.23715983  3.2893015  -3.09271686
H  0.33291432  4.69644199 -4.40447764
H  1.47916891  3.4475771  -4.37967901
H  0.81454512  1.33455995 -5.2635587 
H -0.94601873  1.10550804 -5.58671109
H  0.24941366  1.1490987  -2.7423767 
H -1.48048513  1.35483588 -3.06804072
H  0.25763977 -2.21018078 -2.78211543
H  0.37454972 -0.61329785 -1.81323995
H -2.19175075 -2.16407449 -2.45734456
H -2.03250213 -1.16610643 -1.09394767
H -1.45262477 -1.99498891  0.94633127
H -1.00091243 -3.6821108   0.98486231
H  1.33358921 -3.0977237   0.11670449
H  0.93227295 -1.32306888  0.28441067
H  2.7192031  -2.98091662  2.23259468
H  2.55971671 -1.14313799  2.01138509
H  1.1615989  -1.32797851  4.20024679
H  3.02570605 -1.06971596  4.2227808 
H  1.83570914 -4.67037172  5.50542273
H  0.47051817 -3.60698541  5.26809727
H  1.20888017 -4.51827888  3.79471985
