52

O  1.66778165 -2.3354116   0.30663846
S  1.02156399 -1.41882882  1.24713159
O  1.78183226 -0.15627458  1.51775481
N -0.57710315 -1.00341462  1.04212032
S -1.68140521 -2.15902469  0.77004477
O -2.84314159 -1.2681618   0.34990498
O -1.86936202 -3.35795585  1.66211959
C -1.13970481 -2.80152468 -0.98091148
F -0.50518083 -4.00687267 -0.94099082
F -2.14401486 -2.93343811 -1.83428452
F -0.25662612 -1.85771042 -1.48010972
C  1.13910439 -2.42476494  2.84866162
F  1.22394303 -3.72659617  2.5719547 
F  0.11382946 -2.20815026  3.75405672
F  2.27297467 -2.04145429  3.4693923 
C -0.32430186  1.51490463  3.73985852
O -1.65540385  1.18646574  4.08503658
C -2.53032287  1.03251507  2.85451341
C -2.76418128  2.45444286  2.27485477
O -3.69237867  2.33743365  1.15432536
C -3.13922374  2.62977196 -0.16821362
C -1.9512858   1.80278543 -0.47823013
O -1.48496116  2.1186065  -1.83305631
C -0.41624675  1.36628982 -2.34362366
C  0.81899615  1.60975976 -1.47352209
O  2.01511603  1.30700503 -2.35027547
C  2.6314648   0.08381914 -1.98205788
C  3.79375019 -0.11037731 -3.02846023
O  4.31891248 -1.42383625 -2.98465054
C  3.52284178 -2.43946994 -3.52913261
H -0.23734454  2.64405847  3.58923763
H -0.02048416  1.13675498  2.70402196
H 0.3677434  1.10383002 4.54399905
H -2.04682977  0.33221554  2.17371962
H -3.52324054  0.69370504  3.20483562
H -3.28927325  3.12302397  3.03013696
H -1.80166871  3.02192172  1.92354028
H -3.97170503  2.4135868  -0.8159179 
H -2.99282946  3.75746445 -0.14034434
H -2.21521997  0.72952551 -0.40470279
H -1.19371066  1.85354998  0.32315242
H -0.15935617  1.74323932 -3.38291991
H -0.71384438  0.3413358  -2.36488092
H  0.79189323  2.66509571 -1.06925127
H  0.89771248  0.90659068 -0.63212722
H  1.96890302 -0.79986134 -2.01671255
H  3.09784162  0.10725043 -0.9285828 
H  4.64625893  0.52187307 -2.79986271
H  3.27298314  0.06573836 -4.04270271
H  2.57156845 -2.77992915 -2.96877007
H  3.00796699 -2.08108563 -4.45759553
H  4.19536905 -3.2704163  -3.7091222 
