52

O -1.25728998  2.49805047 -3.13340402
S -0.7007824   1.08883914 -3.10866556
O -1.69417286 -0.00524946 -3.2006911 
N  0.23548873  0.71412471 -1.84064972
S  0.91159909  1.98465097 -0.94801799
O 1.78598815 1.46420104 0.12833846
O  1.402583    3.11274676 -1.81406249
C -0.47029935  2.70706015  0.06144344
F 0.01925901 2.77168053 1.30923505
F -1.71747196  2.15212416  0.0766878 
F -0.60506159  4.01719879 -0.3468706 
C  0.33654998  0.93032649 -4.6911603 
F  0.72242672 -0.37559051 -4.77453162
F -0.46715153  1.10932699 -5.76098448
F  1.40647858  1.74748613 -4.77512821
C  4.2241605   1.69356321 -2.04565826
O  4.89800995  0.57427032 -1.5752565 
C  4.17774839 -0.4393772  -0.91633095
C  3.23069506 -1.23898333 -1.81205434
O  2.56964791 -2.25574707 -1.07037173
C  1.42852175 -1.96988118 -0.26938218
C  0.13420662 -2.59376501 -0.78659484
O -0.90484063 -2.69992349  0.17515577
C -1.6672768  -1.56499264  0.43849258
C -1.14258833 -0.64909767  1.6839021 
O -2.25700336 -0.55199656  2.52150812
C -2.25461655  0.40730648  3.52923705
C -3.55205964  0.43407465  4.39792305
O -3.70506131 -0.72615405  5.18648227
C -4.40105205 -1.78954557  4.55637013
H  4.77963173  2.1547668  -2.95403449
H  4.12189619  2.47183539 -1.23258368
H  3.18605524  1.41250198 -2.32793701
H  3.62587405  0.02296701 -0.05171751
H  4.97134643 -1.01416102 -0.43322188
H  2.45387371 -0.59490293 -2.2623461 
H  3.81809998 -1.8179721  -2.63306969
H  1.61965803 -2.41757264  0.74923969
H  1.39223387 -0.82922301 -0.24377054
H  0.3776797  -3.6116515  -1.04119942
H -0.1978005  -2.03776087 -1.68884976
H -1.68182348 -0.89215608 -0.44976159
H -2.72355549 -1.9154905   0.66019604
H -0.30783962 -1.05845676  2.27172364
H -0.80948088  0.31300258  1.25257985
H -1.40560114  0.23515451  4.22727584
H -2.14357712  1.4181003   2.96721602
H -4.47073119  0.64450653  3.78617193
H -3.49571071  1.28813897  5.13437991
H -4.59676438 -2.62158666  5.3155741 
H -5.37354209 -1.47501416  4.04638159
H -3.82655743 -2.22175309  3.71279211
