52

O -0.87405358 -1.83602178  0.44346594
S -0.26713884 -0.90494689  1.4390153 
O 0.72032593 0.18604716 1.15774797
N -1.43277696 -0.62500999  2.52540437
S -2.25535165  0.68159293  2.88648587
O -3.31452338  1.08292176  1.94172311
O -1.48050537  1.69561143  3.58119568
C -3.13686894 -0.17109919  4.3464936 
F -4.09940866 -1.10521225  4.00018189
F -2.16233405 -0.80789067  5.01018183
F -3.7132063   0.73213573  5.20821212
C  0.79966793 -2.14723571  2.31257047
F  0.02142899 -3.24290714  2.50112981
F  1.28358044 -1.70851411  3.5290708 
F  1.77820708 -2.45860656  1.50023393
C -0.25462589 -5.53749069 -3.38904815
O  0.40898545 -5.44626456 -2.15934036
C  1.16036335 -4.24411308 -1.96452493
C  0.27828341 -3.04271871 -1.87196069
O  0.02620039 -2.38066424 -3.09130064
C -0.65547234 -1.14037991 -2.91981783
C  0.35442441  0.04184071 -2.79342234
O -0.48262737  1.04730762 -2.14365679
C  0.04443839  2.39438762 -2.44019852
C  1.01202912  2.97996942 -1.44066554
O  0.38533654  3.78705377 -0.45105927
C -0.23775794  3.20420092  0.70046916
C 0.67815097 3.31812648 1.887309  
O 0.85315784 4.70116999 2.42146749
C 2.20646766 5.15606109 2.34725465
H -0.97497535 -4.68560596 -3.66266909
H -0.96067253 -6.45099307 -3.32391933
H  0.4282404  -5.76036295 -4.31994025
H  1.93085011 -4.02941065 -2.70224578
H  1.70142048 -4.34141876 -1.06932585
H -0.66559551 -3.20901684 -1.30262715
H  0.697842   -2.22541471 -1.10035364
H -1.36253891 -1.11508126 -3.79465447
H -1.3255616  -1.15133826 -2.04268864
H  1.19434139 -0.29597353 -2.2557349 
H  0.50945523  0.47403725 -3.74099568
H  0.56207841  2.26764907 -3.42978597
H -0.86617748  2.95655849 -2.40891789
H  1.71056031  3.66919422 -1.97386581
H  1.69359765  2.22237388 -1.0253541 
H -0.45535509  2.08507158  0.57755526
H -1.14388865  3.73274978  0.96664351
H 1.63940972 2.79439952 1.67789039
H 0.10102084 2.86265049 2.74625148
H 2.98163945 4.64855098 2.99388451
H 2.188013   6.18513007 2.76936002
H 2.77189952 5.15689952 1.34687543
