52

O -1.28413129 -1.48251224  1.16572869
S  0.02403595 -1.20885446  1.76575035
O  1.07024619 -0.72415725  0.90212811
N -0.04505618 -0.53274741  3.28801783
S -1.391384    0.33781229  3.50551089
O -2.01379896  1.03963863  2.39100533
O -1.22021439  1.07511863  4.77921833
C -2.85084417 -0.92748168  3.84813564
F -2.44853666 -2.24039337  3.70519507
F -3.31982361 -0.74884405  5.09682696
F -3.86797342 -0.7321815   3.03415658
C  0.7183404  -2.81803125  2.27370501
F  0.31578473 -3.26178099  3.49973914
F  2.08166225 -2.83780953  2.15884265
F  0.17792299 -3.77606055  1.43260829
C -1.21029188 -4.30156367 -4.22920962
O -1.28140447 -4.86693512 -2.92862252
C -0.2735192  -4.26171336 -1.99079487
C -0.58894511 -2.83615326 -1.58584588
O -0.12095655 -1.81967151 -2.52163936
C  0.07986916 -0.53996368 -2.03801459
C  0.47516363  0.41315995 -3.17394068
O  0.6370584   1.78097444 -2.84891266
C  1.7612192   2.23805691 -2.11888107
C  1.48478524  2.40168804 -0.66531784
O  0.81986206  3.64658308 -0.42403295
C -0.24202795  3.54135769  0.59147463
C 0.31919441 3.45337098 2.01135893
O 0.9212106  4.67356277 2.6109056 
C 1.92752647 5.16768334 1.71001827
H -0.20096544 -3.82663269 -4.50338805
H -2.05241384 -3.59292439 -4.41725074
H -1.39405153 -5.11258357 -4.94346325
H  0.75784514 -4.40753079 -2.36714438
H -0.41701079 -4.77742178 -1.01411461
H -1.677064   -2.68829217 -1.62953826
H -0.32402036 -2.51433645 -0.52072639
H -0.87098231 -0.24105282 -1.56437458
H  0.91568126 -0.4721294  -1.26258365
H  1.40232209 -0.0158981  -3.72193964
H -0.20710759  0.35856907 -4.11691932
H  2.65500119  1.45989095 -2.19639871
H  2.22417986  3.13057281 -2.53692013
H  2.44409093  2.51305031 -0.13009042
H  0.88595697  1.53695458 -0.31150575
H -0.66131539  2.6009926   0.29274713
H -1.08128014  4.38912493  0.52629317
H 0.99718821 2.58972328 2.11465156
H -0.58110419  3.21868872  2.60988264
H 2.72858014 4.36284521 1.71365773
H 2.27439511 6.27909217 2.05559499
H 1.52710082 5.35714569 0.67841636
