52

O  1.60614553  3.03860212 -1.31616696
S  0.4916447   2.10002013 -0.97719591
O  0.42012877  0.87679043 -1.79819216
N 0.28958547 1.70888027 0.64600359
S 0.29392293 3.11724389 1.65325176
O -0.75055914  2.9813703   2.7354547 
O 0.32832401 4.41531235 0.96381997
C 1.90855262 2.81950111 2.62968851
F 2.11275006 3.82909081 3.53184069
F 1.75095333 1.70242673 3.31159705
F 2.91829194 2.77961217 1.81730442
C -1.1447112   3.02155933 -1.42133339
F -0.98447741  4.29832066 -1.75701237
F -2.1503191   2.89931833 -0.49275529
F -1.55850996  2.51882982 -2.5997874 
C  3.50109571 -1.82058126 -3.05868991
O  4.21641146 -0.56426453 -2.91167173
C  3.50314042  0.32424495 -2.02262306
C  3.48052863e+00  2.90208181e-04 -5.12804432e-01
O  2.7220948  -1.12413712 -0.11631296
C  2.24596831 -1.3295414   1.25485786
C  0.83123197 -1.97150811  1.18719237
O  0.21458062 -2.07052836  2.50950022
C -0.95784946 -1.27914405  2.67892247
C -2.26748558 -1.92834824  2.07567584
O -2.39882047 -2.03812211  0.67105362
C -2.41440597 -0.75176813  0.02209403
C -3.40199989 -0.7665335  -1.07877238
O -4.68590254 -0.83374882 -0.6525423 
C -5.43852595 -1.79734869 -1.22810356
H  2.75447991 -1.62060408 -3.87433636
H  3.04090768 -2.08322105 -2.07339181
H  4.1936964  -2.54290471 -3.50372908
H  4.14760564  1.28427332 -2.0531431 
H  2.56924844  0.62784299 -2.48602957
H  3.06619315  0.9623624  -0.01727409
H  4.50153045 -0.12444857 -0.17783995
H  2.89299712 -2.08230705  1.85366262
H  2.22027618 -0.39269451  1.86630777
H  0.24409507 -1.25790174  0.50461535
H  0.96415474 -3.0340211   0.8687174 
H -0.88733266 -0.20155497  2.40512517
H -1.13641911 -1.26160779  3.76228242
H -2.36088381 -3.00166902  2.40913119
H -3.06982459 -1.29040929  2.39804072
H -2.81609277  0.09196864  0.64708135
H -1.3736587  -0.46781771 -0.33572556
H -3.22858022 -1.57208786 -1.81596263
H -3.25953732  0.11356818 -1.78056988
H -5.12950616 -2.8651088  -0.9778482 
H -6.50256166 -1.70651377 -0.96607657
H -5.51257241 -1.7309828  -2.3973305 
