52

O -0.56048677  1.69699499 -3.2603429 
S -0.27204705  0.32056654 -2.72905343
O -1.32990651 -0.69706458 -2.68615914
N  0.42381758  0.43883916 -1.25162788
S  1.19939465  1.7952868  -0.77567244
O 1.56604492 1.64081311 0.67454654
O  2.24824191  2.28232323 -1.70529549
C -0.06387329  3.30814936 -0.636064  
F -0.13538357  3.80702501  0.61919641
F -1.36587019  3.10927463 -1.0419469 
F  0.3487074   4.25072516 -1.45941902
C  1.05111473 -0.43780182 -3.78664502
F  1.28884438 -1.68098527 -3.36540139
F  0.52320084 -0.5981129  -5.06157793
F  2.13242159  0.26148691 -3.91490829
C  5.2902478   1.71259836 -0.44555031
O  5.01808315  0.41594049 -0.91522789
C  4.13050566 -0.33546387 -0.0872962 
C  3.15115732 -1.17681004 -0.86117541
O  2.68187431 -2.30066222 -0.08781156
C  1.4679444  -2.04919616  0.70772788
C  0.31016572 -2.85359869  0.10593622
O -0.71528553 -3.15282788  1.02215835
C -1.95181136 -2.52789531  0.84855682
C -1.89189162 -0.97485558  1.03919141
O -3.16830557 -0.44477658  1.02280619
C -3.20867974  0.98813071  1.24584636
C -4.64080757  1.36133142  1.7058259 
O -4.88184647  1.24477117  3.09842747
C -4.85419154 -0.11990541  3.50892814
H  6.17891084  2.12532828 -0.9804439 
H 5.52690332 1.63831105 0.63043523
H  4.38048233  2.33238263 -0.56227752
H 3.63437625 0.2349501  0.75237901
H  4.76738538 -1.07308745  0.50254925
H  2.28977508 -0.6542956  -1.24080612
H  3.71003107 -1.51899242 -1.77080924
H  1.57147763 -2.46485055  1.70838967
H  1.23656241 -0.96509178  0.76879249
H  0.74196903 -3.84343864 -0.17029306
H -0.01271942 -2.40967407 -0.85117022
H -2.33271844 -2.80642874 -0.15663876
H -2.56309744 -2.88328938  1.65123097
H -1.36908413 -0.80513016  2.02978613
H -1.15461223 -0.53870905  0.29774833
H -2.53658024  1.24598006  2.14685762
H -2.96674966  1.48690041  0.29953026
H -5.40466698  0.70222821  1.07356239
H -4.80679603  2.41763612  1.50193903
H -5.7805968  -0.30431118  4.18315492
H -4.94661202 -0.76135274  2.59667439
H -3.95501951 -0.43936582  4.06143665
