52

O -2.03683299 -1.97531977  2.42130697
S -1.44835177 -1.01864764  1.45670045
O -0.04845086 -0.62588444  1.4871996 
N -1.75916068 -1.26708437 -0.19709951
S -3.1589355  -2.06865652 -0.54940805
O -3.47944574 -1.73291247 -1.94317964
O -4.26054729 -2.04534304  0.49738309
C -2.66243736 -3.92257953 -0.67034686
F -3.42970339 -4.65132177  0.14478688
F -2.73981873 -4.39120186 -1.90297906
F -1.38924034 -4.05532781 -0.25880141
C -2.45159664  0.70881124  1.69775223
F -3.69640201  0.7561409   1.21907346
F -1.67530382  1.59997832  1.07549856
F -2.58172469  1.02418472  3.00988288
C 1.17591048 0.76069363 5.49428228
O 1.2493266  2.14755758 5.12077951
C 0.8567001  2.37741435 3.69685631
C 1.76735719 1.56287455 2.67447706
O 1.80901529 2.38445843 1.55231496
C 1.59069659 1.79875339 0.33328804
C  1.39373615  2.9441721  -0.76664675
O  1.5378748   2.45404796 -2.06870525
C  0.38345447  1.84063377 -2.63284761
C  0.7730022   1.29546469 -4.02980364
O -0.0290346   0.23994778 -4.48785266
C  0.48019046 -1.05654368 -4.35470484
C  0.24601424 -1.75772668 -3.02267342
O  1.37529608 -1.52457624 -2.16767243
C  1.23111034 -2.28879838 -0.97849221
H 0.42649303 0.2338764  4.93245186
H 0.94437399 0.62644334 6.60975065
H 2.13132328 0.23710433 5.36466698
H -0.2294007   2.15331932  3.55278481
H 1.0555972  3.43893221 3.64238945
H 2.78782986 1.48950781 3.1616834 
H 1.45933224 0.58240096 2.3865163 
H 2.43852806 1.20914156 0.06535242
H 0.70711529 1.12216226 0.2594621 
H  2.13795295  3.79987975 -0.53192309
H  0.35633161  3.41710693 -0.66494929
H -0.56375936  2.47095609 -2.62709601
H  0.11903105  0.99662978 -1.91901545
H  0.66639611  2.12483436 -4.78426639
H  1.83488865  0.92148808 -3.97065259
H  1.55472942 -1.07977204 -4.57178287
H  0.05485078 -1.70206512 -5.15879058
H  0.14096901 -2.84768628 -3.15182426
H -0.69985701 -1.42529074 -2.55742013
H  0.23414432 -2.17594599 -0.53894524
H  1.58806697 -3.37473175 -1.08439664
H  1.8323647  -1.73150044 -0.26436435
