52

O -0.12589414  0.31309312  0.43518998
S -1.49300418  0.16653265 -0.08189321
O -1.9694877  -1.11585489 -0.65507887
N -1.83715624  1.38020054 -1.03144933
S -3.08591005  1.2171285  -2.12621471
O -2.70747283  0.35147427 -3.31206028
O -4.42718125  1.04399281 -1.51956194
C -2.88640335  3.00509298 -2.70837221
F -2.73610396  2.93563051 -4.02286199
F -1.79032687  3.56447836 -2.21426907
F -3.9716169   3.83933849 -2.42269137
C -2.57214901  0.49228179  1.49854943
F -1.89430042  0.18317873  2.63095508
F -2.73100776  1.85696433  1.44146206
F -3.80015376 -0.05020556  1.59314936
C 1.06827826 3.67118031 0.51439748
O  1.67477834  4.01616085 -0.70136458
C  1.37817481  3.06944693 -1.73105734
C  2.71213486  2.34883327 -1.97031649
O  2.60721503  1.35882353 -2.94705409
C  2.90544446  0.02430463 -2.56492485
C  1.61549414 -0.60571607 -1.8456828 
O  1.87909701 -1.97489616 -1.63530462
C  1.28840964 -2.55285348 -0.50605413
C  2.21676328 -2.35509507  0.66104084
O  1.77545934 -3.16572703  1.74221623
C  0.87186835 -2.56464285  2.65764992
C -0.56778469 -3.11685087  2.47931509
O -1.23001591 -2.63056627  3.64569243
C -2.13527012 -3.44921783  4.24248261
H 1.12378894 4.58468427 1.1918843 
H 1.60324007 2.84540115 1.04746977
H 2.40262440e-03 3.45013085e+00 4.45822062e-01
H  0.60232654  2.37659693 -1.46298038
H  0.996032    3.56454234 -2.70390148
H  3.50259377  3.10794569 -2.26534993
H  2.90682062  1.94720893 -0.94593444
H  3.01417883 -0.67046676 -3.47181623
H  3.79261873 -0.13049537 -1.93593033
H  1.39317562 -0.06509389 -0.89881345
H  0.70395385 -0.43029512 -2.42997762
H  1.1472994  -3.66065624 -0.68017085
H  0.29988247 -2.15622827 -0.22111421
H  2.21066406 -1.29266219  0.93827439
H  3.23910652 -2.61626301  0.36315966
H  1.15869832 -2.68804374  3.69648851
H  0.89188509 -1.47802198  2.44371142
H -0.45486354 -4.22264841  2.4675523 
H -0.86418382 -2.73531933  1.50927802
H -3.14456142 -3.27663687  3.84530723
H -2.32016477 -3.16004665  5.33477259
H -1.83677228 -4.55014285  4.18638003
