52

O -1.78620343  3.28698558  0.02808844
S -1.7794911   1.83944896  0.22816577
O -2.89786696  1.07120079 -0.364761  
N -0.37439268  1.0573867  -0.20712082
S 1.10940486 1.73444371 0.03069404
O  2.00920647  0.60825621 -0.08801238
O 1.25247522 2.71968285 1.17282893
C  1.44142507  2.82516704 -1.57162893
F  2.7515765   3.12295345 -1.70119007
F  1.06914669  2.28124854 -2.75420191
F  0.82968638  3.97170951 -1.4720179 
C -1.97994668  1.38060124  2.12386297
F -0.70446879  1.18486823  2.56292682
F -2.61237459  0.2609465   2.39782253
F -2.50922726  2.43406373  2.65543315
C -0.99376455 -0.84942297 -5.75466609
O -2.12799438 -0.15990303 -5.47671499
C -2.45517452  0.14126917 -4.11796986
C -1.72955561 -0.54727555 -2.9984623 
O -2.04346546 -1.87692937 -2.78383357
C -2.33725863 -2.17998466 -1.43120226
C -1.09184784 -2.07347345 -0.55133896
O -1.32528515 -2.78775215  0.6819654 
C -0.15616575 -3.04265832  1.46365505
C  0.43300773 -1.73332403  2.19126958
O  1.64094652 -2.02247529  2.91775585
C  1.93675842 -0.83439821  3.75294548
C  3.29431894 -0.23131164  3.29968531
O 3.59803149 0.84693075 4.19846229
C 3.5016249  2.17291666 3.79918587
H  0.01915445 -0.3035198  -5.59073216
H -1.00213845 -1.07627033 -6.85079413
H -0.85091056 -1.776127   -5.17875782
H -3.52503768 -0.12081082 -4.04210167
H -2.39402595  1.22276485 -3.96040014
H -1.882952    0.08251351 -2.05545832
H -0.62311681 -0.46492027 -3.16607906
H -3.08326936 -1.43859117 -1.13417103
H -2.75532442 -3.19999385 -1.51591644
H -0.26925069 -2.52401995 -1.11921408
H -0.88318145 -1.02853777 -0.40533399
H  0.72447231 -3.41103573  0.88250973
H -0.61354701 -3.75699588  2.25457622
H  0.6502007  -0.93755303  1.42977759
H -0.35064655 -1.38705976  2.92766697
H  1.09339515 -0.09120896  3.73820185
H  2.08560595 -1.1848647   4.78306823
H  4.09558757 -1.01841065  3.36682925
H 3.16037604 0.11383336 2.27916411
H 2.41305025 2.57831716 3.65638868
H 4.06973498 2.43259512 2.82433096
H 3.95869771 2.68872474 4.6448188 
