52

O -0.72777606  0.63545613  3.24750765
S -0.43451297  0.02571808  1.96508518
O 0.07612558 0.95646855 0.96767659
N  0.37577836 -1.41701085  2.08601321
S  0.27382828 -2.28914753  3.47751211
O  0.739934   -3.60755249  3.14627043
O -0.92404763 -2.09341814  4.29879086
C  1.77854727 -1.56719895  4.47433775
F  1.86731752 -0.27196423  4.57709478
F  1.64106985 -2.02205302  5.7622714 
F  2.88826513 -2.05924642  3.95623076
C -2.1737029  -0.58168797  1.39406509
F -2.641463   -1.63585529  1.99551631
F -2.13232334 -0.91379481  0.112575  
F -3.10896686  0.40567505  1.49216222
C -0.28550326  4.00120295  2.01808607
O -1.19009961  4.8941215   1.32226104
C -1.53384121  4.25713301  0.09488024
C -0.43726555  4.45606145 -0.96626577
O -0.75060306  3.67317986 -2.16599338
C -0.49738094  2.26582445 -1.96858654
C  0.44078485  1.92640212 -3.07470134
O  0.93929566  0.61772774 -3.32086749
C  0.3518268  -0.40658797 -2.52123759
C  0.4420953  -1.70568304 -3.35452293
O -0.65423628 -2.51598884 -3.16252103
C -0.58046379 -3.69584308 -2.32589355
C  0.22387841 -3.5315747  -0.99433954
O  1.60953989 -3.5052895  -1.20175806
C  2.23322034 -3.08921503  0.01329113
H 0.77681419 4.3169315  1.80704538
H -0.46677171  2.98887704  1.67173953
H -0.55964105  4.02068893  3.08420459
H -1.79781828  3.16809492  0.25128728
H -2.52159201  4.68893334 -0.14425931
H -0.48248969  5.46778558 -1.37286452
H  0.51552852  4.19206852 -0.44468289
H -0.14903523  2.11268209 -0.89653586
H -1.4490674   1.68780346 -2.11434179
H  1.24221215  2.64440534 -3.0010566 
H -0.09397977  2.24154269 -4.01215497
H -0.72609396 -0.28643487 -2.36862583
H  0.8756503  -0.48113912 -1.54726161
H  0.40409198 -1.35563877 -4.39676126
H  1.43813284 -2.20102036 -3.23391212
H -0.1681128  -4.54168534 -2.86670518
H -1.61252391 -3.95487799 -2.11123591
H -0.12603736 -4.34194152 -0.33532301
H -0.14931547 -2.68336908 -0.40850608
H  3.27687545 -2.83936753 -0.19267508
H  1.75540395 -2.18211531  0.52759616
H  2.20844847 -3.86808254  0.76008852
