52

O -2.65761138 -1.76230088 -1.99404132
S -1.25920979 -1.68501147 -2.54943053
O -1.16391277 -2.23514893 -3.93608532
N -0.49830361 -0.26325327 -2.36373624
S -1.08854545  0.78585939 -1.17001831
O  0.02167699  1.63489771 -0.69305313
O -2.01685473  0.28898215 -0.13401601
C -2.28472304  1.85527713 -2.22993625
F -1.74953685  2.74371544 -3.10563156
F -3.00571967  1.00616836 -2.92491349
F -2.9759807   2.50976726 -1.27128836
C -0.37265102 -3.10937395 -1.46999812
F -0.52243822 -4.2529518  -2.15249463
F -1.06659745 -3.28872319 -0.30502992
F  0.92044246 -3.05842008 -1.17484366
C  1.90428875 -0.13787875 -4.67994842
O  2.32523226  0.3570251  -3.47284116
C  2.89938621 -0.72161246 -2.6154571 
C  2.90430703 -0.0265955  -1.2532026 
O  3.80145144 -0.68186177 -0.37376433
C  3.22007801 -1.23173441  0.77282116
C  2.887269   -0.11868597  1.81943929
O  2.25115667 -0.79283831  2.90712701
C  1.21211512 -0.30572795  3.63253431
C -0.09303187 -0.5744577   2.87936176
O -1.16930494 -0.14430715  3.77989764
C -2.411248    0.40822746  3.25897152
C -2.49710881  1.92116524  3.58150145
O -3.67343859  2.54161981  3.02059782
C -3.66658407  2.82264423  1.66471249
H  2.71568764 -0.47355559 -5.38645312
H  1.41782587  0.62806336 -5.30288674
H  1.187624   -0.95522815 -4.57227643
H  3.90756169 -0.97164777 -3.06175979
H  2.20777101 -1.5964598  -2.7291994 
H  1.90314205 -0.19016753 -0.88359792
H  3.02041454  1.05146459 -1.29111499
H  2.29213158 -1.83713567  0.61535341
H  4.01651712 -1.92617145  1.16190663
H 3.80509326 0.31853555 2.14004338
H 2.18181541 0.52015232 1.32069064
H 1.28535847 0.76835377 3.86168172
H  1.15311236 -0.89526203  4.64107178
H -0.20381542 -0.14241813  1.84070241
H -0.26703712 -1.69450745  2.65334726
H -2.35922572  0.27615418  2.11999773
H -3.17959008 -0.26297282  3.70595428
H -2.71019899  1.99666165  4.6668005 
H -1.48827949  2.33249437  3.41214861
H -3.31240073  1.93043693  1.09738626
H -3.06717624  3.65124147  1.26679386
H -4.68093422  2.98750247  1.27617593
