52

O  0.84270811 -0.21696919  1.3789542 
S -0.15397294 -0.30284146  2.46751544
O -0.89641458 -1.61556937  2.57391561
N -1.13792522  1.04902815  2.66318157
S -1.95409549  1.35988055  1.29279815
O -1.51327311  2.57825433  0.54402   
O -2.28098612  0.15193777  0.46678312
C -3.60985033  1.82014116  2.06596893
F -4.29606043  2.37238807  1.06887088
F -3.42066403  2.78983794  3.00865366
F -4.34356862  0.84869963  2.59569445
C  0.86116419 -0.00631311  4.10114082
F  1.69471419 -1.05037328  4.32058677
F 1.53624282 1.13887299 3.94129451
F 0.03236319 0.13456596 5.17247711
C 2.1117416  3.20941028 1.82825931
O 2.59486214 3.68055254 0.62240703
C  2.15865975  3.05225559 -0.54839194
C  2.87153439  1.80309436 -0.90681163
O  2.59656895  1.57322457 -2.30692489
C  1.82156203  0.39668876 -2.55873281
C  0.28923523  0.69996217 -2.43889675
O -0.47034097 -0.29727319 -3.15206489
C -1.84823955 -0.3690114  -2.76090765
C -2.48369237 -1.73349312 -3.01161247
O -2.2999776  -2.79302956 -2.01740809
C -0.88790491 -3.16876912 -1.92986526
C -0.41558651 -2.91557396 -0.49847481
O  0.2350271  -4.10763491 -0.09721945
C  1.00278733 -3.97623924  1.07060154
H 2.52383874 2.14654388 2.07461849
H 0.9969186  3.00339617 1.77225188
H 2.39527911 3.99977016 2.60913265
H  0.98393324  2.95335188 -0.57880916
H  2.42187866  3.78533482 -1.38731614
H  3.94218916  1.92956534 -0.68494728
H  2.52232571  0.93378288 -0.28153027
H  2.00315129  0.04366755 -3.63728118
H  2.14868761 -0.43872496 -1.87853633
H  0.04122409  0.62890541 -1.29838901
H  0.08541318  1.71599701 -2.85848423
H -2.47462457  0.233861   -3.45401641
H -2.06627052 -0.07452488 -1.66804162
H -2.27618541 -2.10717458 -4.07013726
H -3.58213442 -1.53227792 -2.99546832
H -0.80917699 -4.24840413 -2.04606601
H -0.22729629 -2.59163018 -2.58244082
H -1.2197975  -2.66887544  0.27598874
H  0.27865059 -2.05545632 -0.44587241
H  1.1897125  -4.99632446  1.48283921
H  0.47878712 -3.34447157  1.84837104
H  2.00687784 -3.42201559  0.84832201
