52

O -0.9417988  -4.82738904  1.03644194
S -0.80461574 -3.93552373 -0.12736903
O -1.29015035 -4.37813464 -1.47675308
N -1.2089494  -2.33598658 -0.03829848
S -0.95121993 -1.57843991  1.36169836
O -1.46076092 -0.18095982  1.32083095
O  0.28542211 -1.86889221  2.17968847
C -2.3162593  -2.06649319  2.65241193
F -1.66489511 -1.99937442  3.79409358
F -3.31215778 -1.20610871  2.60791907
F -2.79418632 -3.32236284  2.41953214
C  1.08198278 -3.96030943 -0.37307815
F  1.43253701 -2.85739336 -0.98290155
F  1.37880389 -5.04004865 -1.1174206 
F  1.72582113 -4.08919305  0.79036745
C -3.53986413  4.54442817  0.70685028
O -4.36388535  3.34012864  0.86981774
C -3.70167292  2.20096181  0.50186001
C -3.77849744  1.96488392 -1.01911109
O -3.17795523  2.95015552 -1.8398725 
C -1.87945217  2.62198005 -2.30922697
C -0.96964687  2.08139112 -1.1777221 
O  0.38124488  1.99977165 -1.67911219
C  1.31939723  1.53402415 -0.72509975
C  1.60792571  0.02903598 -0.76030387
O  2.92130141 -0.24238951 -0.42659946
C  3.19640518 -0.51368946  0.90892841
C  4.46622393 -1.5018481   0.91005444
O  5.79165755 -1.03266153  0.3259085 
C  5.72085217 -1.1635244  -1.07318032
H -2.48609828  4.27985308  0.74391843
H -3.76920798  5.24676557  1.48555336
H -3.66968124  5.09819885 -0.22520607
H -4.24008936  1.3412201   0.86313817
H -2.67765621  2.12361049  0.93175076
H -3.24510054  0.99119224 -1.21022093
H -4.93409382  1.87558375 -1.1824406 
H -1.87425181  1.93950474 -3.22806981
H -1.36309812  3.53234479 -2.57496299
H -0.96333204  2.76459161 -0.24918972
H -1.44398903  1.08232485 -0.94725563
H  2.29840025  2.09832033 -0.82498454
H 1.05966942 1.67631766 0.34483679
H  1.48363704 -0.32375175 -1.78928855
H  0.8341632  -0.58401179 -0.19396023
H  2.37671508 -1.06105588  1.52354253
H 3.51622131 0.44670108 1.44184602
H  4.12325602 -2.48582424  0.39757372
H  4.65732619 -1.71459327  1.97563278
H  6.65050954 -0.87637091 -1.52053408
H  5.02792914 -0.41306709 -1.59296403
H  5.48516402 -2.20389263 -1.4290695 
