52

O 0.07566665 0.19102948 0.77923645
S -1.32914447 -0.01701844  0.24656378
O -1.75598134 -1.40481651 -0.03721925
N -1.4590411   1.0119374  -0.95574822
S -2.83371592  1.07892466 -1.81530594
O -2.56946414  1.00790731 -3.25752171
O -3.93237108  0.32318607 -1.20053193
C -3.2822995   2.92803685 -1.78481067
F -3.15133872  3.49845772 -3.03018008
F -2.41244398  3.58563713 -1.00073716
F -4.53260748  3.06308089 -1.33036686
C -2.35331157  0.78600066  1.80405319
F -1.57442708  0.81702917  2.88569326
F -2.78115725  1.98985084  1.4876833 
F -3.44769352  0.08449406  2.18670708
C 1.50003832 2.60054871 1.32962602
O 1.90287099 3.5586693  0.31716755
C  1.5638679   3.04978597 -0.99708541
C  2.72434891  2.22060361 -1.62248905
O  2.29655317  1.61535365 -2.8993678 
C  2.63381947  0.26011906 -3.07903917
C  1.55387782 -0.60286635 -2.38399147
O  1.79709458 -1.95367972 -2.41090108
C  1.04910264 -2.62992116 -1.38684868
C  1.93133014 -2.75719603 -0.17576086
O  1.28498263 -3.47244303  0.84992554
C  0.93775238 -2.79297164  2.06188855
C -0.60269954 -2.97837545  2.28977934
O -0.96692551 -2.43228918  3.52382016
C -2.2976017  -2.1829925   3.81839232
H 1.42972009 3.11761803 2.36265922
H 2.29398769 1.831938   1.43441975
H 0.48515737 2.13158904 1.26260242
H  0.64553167  2.46169586 -0.95781915
H  1.28990984  3.93797468 -1.63339621
H  3.64230637  2.87801322 -1.73238463
H  3.03937949  1.50204932 -0.84134178
H  2.70232411  0.1042237  -4.20186434
H  3.70175326  0.08873187 -2.72512782
H  1.45876373 -0.10296907 -1.39431497
H  0.60664551 -0.2398626  -2.89910969
H  0.70998679 -3.57390653 -1.80759695
H  0.14823742 -2.10621233 -1.03402507
H  2.13988586 -1.69365819  0.1524315 
H  3.00384965 -3.15422189 -0.43074553
H  1.44741986 -3.16406996  3.00243612
H  1.1715     -1.68659704  2.03017849
H -0.78694157 -4.06742498  2.25853866
H -1.11727234 -2.4072777   1.46047597
H -2.78234187 -1.98199996  2.80476645
H -2.35653109 -1.24817933  4.51576568
H -2.84235356 -3.07353662  4.1608207 
