52

O -3.47445516  0.54719476 -1.59410137
S -2.51610211 -0.1027288  -0.70108678
O -2.83730039 -0.46358058  0.70292554
N -0.99992911  0.49018687 -0.65631658
S -0.06964607  0.65992091 -1.94000363
O  1.27557379  0.94768156 -1.43892493
O -0.14301118 -0.32120377 -3.05375873
C -0.67921696  2.28827626 -2.88298554
F -0.16320785  2.23612485 -4.09522139
F -0.27874312  3.39718196 -2.26394002
F -2.03349452  2.21292381 -2.9306706 
C -2.41628823 -1.7623289  -1.56826647
F -2.46134611 -1.59325501 -2.90854633
F -1.36092217 -2.50340435 -1.18980574
F -3.55434721 -2.47015633 -1.25823362
C  3.47926481 -1.16445838 -3.27945757
O  3.57848252 -2.52399695 -2.96687458
C  3.11634306 -2.82529385 -1.59859083
C  1.56168838 -2.85646062 -1.44448149
O  1.23552228 -3.02366068 -0.042655  
C  1.12157643 -1.71893658  0.59385372
C  0.29408767 -2.00205653  1.94026492
O  0.67443037 -1.31690085  3.12068418
C 0.3041111  0.04182753 3.12476847
C 0.89693004 1.00643248 2.08142977
O 0.56564981 2.34287127 2.53518684
C -0.1223664   3.04220062  1.52870029
C -1.69008869  2.78443435  1.56276161
O -2.28813658  3.36137251  2.7365311 
C -2.8261368   2.34762094  3.53920293
H  3.67558399 -0.93377159 -4.34591048
H  4.28552223 -0.70651942 -2.56177933
H  2.50499862 -0.68014914 -3.03933266
H  3.62212996 -2.11932033 -0.94181647
H  3.5767686  -3.76484525 -1.42957254
H  1.20700229 -1.91791548 -1.95026232
H  1.23740402 -3.74671839 -2.04225079
H  2.14605742 -1.4243709   0.99327198
H  0.61030627 -0.91390132 -0.02834673
H  0.42460765 -3.08043111  2.17006039
H -0.84006594 -1.87570643  1.72003727
H -0.79324035  0.07728159  2.71412943
H 0.45391973 0.42389476 4.13118696
H 1.98004044 0.82380952 2.13616528
H 0.44769783 0.7842139  1.1242277 
H -2.69366880e-03  4.16348812e+00  1.73760547e+00
H 0.19880352 2.74935678 0.49625114
H -1.83318596  1.7031439   1.44975343
H -2.1700322   3.30926703  0.68103696
H -2.20676538  1.41134653  3.72330412
H -2.98960046  2.75521924  4.59190145
H -3.72418023  1.90479949  3.01795156
