52

O  0.66002534 -4.0814322  -1.21576167
S -0.48017672 -3.0553767  -1.16960934
O -1.49917982 -3.25548542 -2.21689406
N -1.05491733 -2.68260605  0.3322749 
S -0.20639232 -2.50149743  1.71170367
O -1.13276454 -1.82641006  2.65231463
O  1.18835318 -2.06477443  1.51763741
C -0.06688848 -4.28656586  2.38276889
F -0.95971655 -4.52928175  3.34213958
F -0.37844136 -5.16626692  1.39221457
F  1.15563103 -4.62977761  2.88056861
C  0.54226564 -1.44916602 -1.6185404 
F  1.84001873 -1.59787079 -1.41026613
F  0.10510688 -0.43282497 -0.88348107
F  0.35144262 -1.09136091 -2.95332829
C -4.45825481 -1.73139089 -0.47572926
O -5.14819408 -0.80471138  0.39104132
C -4.40060094  0.42334258  0.65494365
C -3.34891984  0.25574517  1.74877076
O -3.00637135  1.52050572  2.27881239
C -1.71081264  1.95297674  1.87157919
C -0.62917539  1.48391268  2.87486541
O 0.53750415 2.13070377 2.61447981
C 1.29202057 1.52444409 1.55060627
C 1.81782141 2.44269338 0.44987534
O  2.64988094  1.65888733 -0.43378396
C  3.15323627  2.50551733 -1.40906977
C  3.90307294  1.57819368 -2.34391712
O  4.62727547  2.3585523  -3.3080496 
C  4.45680446  1.85856613 -4.63732352
H -3.62228777 -2.23022027  0.00725285
H -4.10559211 -1.35617101 -1.46553626
H -5.23264296 -2.45458071 -0.70103406
H -5.18247487  1.12917466  1.00489735
H -3.98493978  0.87839883 -0.27774565
H -2.47191009 -0.32130844  1.33001782
H -3.81820946 -0.34621219  2.58952059
H -1.55037558  1.66643164  0.77550373
H -1.82716663  3.0438546   1.97307607
H -0.98301541  1.79689938  3.85133806
H -0.54445308  0.37279791  2.89197018
H 0.84210579 0.68255493 1.04126882
H 2.1275866  1.07553915 2.0881344 
H  0.92950774  2.74597045 -0.18413544
H 2.23129752 3.4102625  0.80889431
H  2.32974183  3.06231174 -1.9081768 
H  3.95225651  3.24635609 -0.93966439
H  4.69577371  1.07198512 -1.73843959
H  3.16225324  0.87249854 -2.74436085
H  4.73473537  2.69380389 -5.31189277
H  3.41766366  1.49706024 -4.8468886 
H  5.10049229  0.95535145 -4.81484195
