52

O -3.99683121  1.85545138  3.32252196
S -3.09156311  2.70177282  4.17136638
O -3.83841277  3.18579032  5.36818734
N -2.08447797  3.77524194  3.51237838
S -1.19862154  3.50754803  2.10879612
O -1.10011723  2.0592571   1.75269664
O -1.64284446  4.50991369  1.10171429
C 0.45475625 4.11805977 2.68439024
F 1.29115601 4.0290394  1.66543625
F 0.92376862 3.45541342 3.71744299
F 0.37485651 5.45425799 2.93167884
C -1.89872477  1.41924609  5.06772717
F -0.98075329  2.04632894  5.76158608
F -2.61421357  0.62265373  5.84208515
F -1.13971545  0.61528732  4.23318848
C  4.12854001 -1.6716721  -3.45787533
O  3.00164664 -1.93913765 -4.25521033
C  1.80773586 -1.58409863 -3.52054502
C  1.08262194 -2.70947801 -2.71904209
O  2.08566032 -3.39293248 -1.98386451
C  1.46757518 -4.39672137 -1.133234  
C  1.51193458 -3.91373654  0.31783281
O  0.81294905 -2.71864653  0.45201495
C  1.59952483 -1.50753677  0.51312166
C  0.75091261 -0.26780272  0.36656051
O  0.11713835 -0.13343729 -0.92357511
C -1.31850699 -0.10107299 -0.91321019
C -1.96800048  0.66360464 -2.13585034
O -3.31709456  1.14413872 -1.80469305
C -3.33554047  2.55469657 -1.46168018
H  4.92959093 -1.50764232 -4.16026094
H  3.98825992 -0.78306655 -2.82068769
H  4.30986382 -2.49789693 -2.69123642
H  1.13610987 -1.19712351 -4.3430942 
H  1.98018566 -0.74813149 -2.80054793
H  0.43740974 -3.42479015 -3.40401557
H  0.33141742 -2.20404414 -2.04316423
H  1.95043053 -5.42182279 -1.33117531
H  0.39738974 -4.48619819 -1.57482306
H  2.50454049 -3.81868311  0.70133843
H  1.01117239 -4.72864586  0.90488623
H  2.05233763 -1.43176746  1.54103094
H  2.5905601  -1.48833413 -0.02397505
H 1.30486537 0.74733477 0.48137734
H -0.03384239 -0.25754374  1.18345762
H -1.73862852 -1.13742721 -0.54472877
H -1.58896816  0.55341305 -0.03470557
H -1.31341114  1.52529766 -2.39415945
H -2.00679923  0.05302147 -3.08255728
H -4.41088756  2.8885412  -1.31408861
H -2.89606602  3.14771726 -2.29944316
H -2.8208895   2.83636341 -0.53137341
