52

O -0.61820107  0.50504729 -0.01237853
S -1.57606434 -0.27045641 -0.81025342
O -2.17073281 -1.4590905  -0.20386803
N -0.87271227 -0.63694747 -2.2859701 
S -1.779258  -1.2198083 -3.5393195
O -1.32850771 -2.59478372 -3.86486464
O -3.20837177 -0.87884142 -3.56814922
C -1.07748993 -0.21587205 -4.93915937
F -1.45459583 -0.75215738 -6.06583717
F  0.30432404 -0.32174862 -4.8407699 
F -1.37071498  1.09911227 -4.95886068
C -3.05914168  0.94055336 -1.05390028
F -2.97806961  1.69702108  0.06650762
F -2.85266099  1.74581119 -2.11168101
F -4.30138281  0.33288653 -1.06721326
C -0.05902648  3.14850404 -2.90677344
O  0.94249306  3.90558371 -2.37668051
C  2.19670392  3.26234464 -2.19714137
C  2.33096287  2.30901648 -1.0416238 
O  3.3531543   1.38530532 -1.43690066
C  3.73416109  0.38458489 -0.52400272
C  2.65617111 -0.64860797 -0.43621559
O  3.00434023 -1.63397986  0.49943324
C  1.87289023 -2.25482034  1.10133399
C  1.03603095 -1.26795802  2.00468457
O  0.33379702 -2.15803049  2.88069394
C -1.01192784 -1.76139745  3.18670325
C -1.22910434 -1.40455907  4.62718162
O -2.59883953 -1.54095528  5.08324107
C -2.57763998 -1.58566361  6.51101325
H -0.64517161  2.59162871 -2.13642567
H  0.2354847   2.41938628 -3.67729279
H -0.81420144  3.76978798 -3.48636891
H  2.52496162  2.5905665  -3.0041487 
H  2.8976666   4.14352159 -2.12914959
H  2.71474429  2.79673386 -0.07065206
H  1.40654269  1.7711195  -0.75556348
H  4.60538036  0.01857651 -1.06165997
H 4.06759024 0.8800481  0.40676123
H  1.65479762 -0.14046926 -0.24474594
H  2.44819646 -1.0569225  -1.44571204
H  2.12903594 -3.10018508  1.74335166
H  1.17254172 -2.6037281   0.32808369
H  0.29240925 -0.77089998  1.37050441
H  1.60306294 -0.48382371  2.52853568
H -1.29776391 -0.97737378  2.48610389
H -1.65205392 -2.64546796  2.9308451 
H -0.80711139 -0.37446112  4.83553251
H -0.57048606 -2.15492741  5.14440946
H -3.60404239 -1.48255489  6.86820369
H -1.91071984 -0.75949874  6.85580814
H -2.09145069 -2.54114932  6.79435033
