52

O  0.8281041  -0.62734651  2.08311399
S -0.53332411 -0.20636566  2.51450237
O -1.66969954 -1.15779851  2.51447438
N -0.89840381  1.25406128  1.94594595
S -1.91122847  1.45135013  0.65303144
O -1.36130338  2.35273381 -0.42374315
O -2.63163133  0.24663663  0.14824753
C -3.2886946   2.28012775  1.71147621
F -4.42991257  2.35701242  1.0109683 
F -2.81889185  3.53541264  2.03395415
F -3.52241244  1.60743569  2.8664749 
C -0.1864284   0.35457004  4.27797977
F  0.10349962 -0.75815585  4.96902963
F 0.8408115  1.180436   4.39116442
F -1.3403743   0.90820915  4.79892131
C 1.64810038 3.49052708 1.66039237
O 2.02167387 3.95032011 0.3477818 
C  1.78327534  2.95331506 -0.65308455
C  2.71172737  1.77128408 -0.78844904
O  2.62046983  1.20969813 -2.15136471
C  1.69146852  0.12861841 -2.29914946
C  0.32531127  0.44686602 -2.89017355
O -0.34696118 -0.77016931 -3.02497979
C -1.71518082 -0.72945843 -2.7352841 
C -2.22552702 -2.12315272 -2.70890208
O -1.85878858 -3.01412892 -1.60455245
C -0.48220571 -3.29881989 -1.46090632
C -0.17134419 -3.39971342  0.03887196
O  1.0533332  -4.06146933  0.14405856
C  2.04905543 -3.45158161  0.90370428
H 1.8900027  2.44292697 1.8419602 
H 0.48002528 3.60864904 1.83252135
H 2.22001089 4.15055555 2.3636817 
H  0.7686778   2.6517789  -0.48710446
H  1.83823679  3.46294727 -1.66326218
H  3.75460367  2.12128619 -0.64654779
H  2.49096086  0.99050408 -0.01390251
H  2.13355696 -0.59846167 -2.98947501
H  1.57627531 -0.53203216 -1.39713701
H -0.14115747  1.13356526 -2.19221832
H  0.38001674  1.0667486  -3.86676711
H -2.27445029 -0.20378741 -3.52058289
H -1.8235667  -0.18875594 -1.73727482
H -1.90357021 -2.63193162 -3.73026917
H -3.33514778 -2.26280523 -2.67802732
H -0.3187008  -4.3049347  -1.90021637
H  0.19482099 -2.59222869 -1.94852798
H -0.95982351 -4.03958686  0.5422755 
H -0.15986205 -2.36390819  0.58652776
H  2.91618821 -4.03199369  0.7680325 
H  1.76148175 -3.35864118  2.04744523
H  2.22690273 -2.40034877  0.51536459
