52

O 2.92214509 4.96572086 1.80102854
S 4.06075021 4.32073476 2.54126969
O 5.30178344 5.10362207 2.74390396
N 4.49089707 2.81371389 2.08235753
S 3.42561324 1.88382888 1.30416305
O 4.11203457 0.62374545 1.00194046
O 2.0168342  1.76751675 1.87893037
C  3.09252646  2.68849075 -0.41620881
F  2.94840875  1.67149588 -1.32341271
F  4.14271268  3.48721453 -0.83371894
F  1.96463928  3.40574082 -0.41375101
C 3.42102374 3.99988514 4.33837172
F 2.16449564 4.45222407 4.40424855
F 3.42953393 2.65215874 4.53651373
F 4.10917072 4.59363752 5.31038366
C -5.38330257 -0.72346691 -1.23689641
O -4.79155686 -1.70805649 -1.95592519
C -3.31522663 -1.71478631 -1.9378998 
C -2.79935519 -2.96034557 -2.65608022
O -1.48108224 -3.39529461 -2.27152248
C -1.53335983 -3.85741048 -0.8738791 
C -0.25715053 -4.42677858 -0.30835109
O  0.6368665  -3.40250175  0.13814777
C  1.24055286 -2.71280771 -0.95828478
C  1.78459828 -1.30649471 -0.5299418 
O  0.98009595 -0.29630173 -1.06921446
C -0.02294062  0.08605082 -0.21184803
C -0.59917219  1.32100478 -0.81962849
O -1.93056054  1.70649546 -0.30057036
C -1.85559676  2.07388955  1.02880237
H -6.39712669 -1.00397999 -0.98298831
H -4.86205294 -0.56636978 -0.20031485
H -5.33178384  0.2732689  -1.68106452
H -3.05011623 -1.76686248 -0.90555529
H -2.88175091 -0.74220118 -2.31893648
H -2.76416398 -2.8542879  -3.75789146
H -3.44161264 -3.89752021 -2.37424815
H -2.39473276 -4.62194765 -0.93264001
H -1.84742869 -2.95971538 -0.17765326
H  0.25501336 -5.07594677 -1.08741288
H -0.5939971  -4.96731996  0.61669819
H  2.16565834 -3.22974223 -1.23724055
H  0.61694652 -2.68506924 -1.86806892
H  2.76207947 -1.18547758 -1.05308351
H  1.92926872 -1.29766791  0.49999835
H -0.87429644 -0.64885711  0.03772254
H 0.40674182 0.2526454  0.81078187
H  0.1908852   2.10049345 -0.80326816
H -0.7511578   1.17062097 -1.91971592
H -2.64331631  2.81448983  1.31859464
H -0.88139262  2.59939091  1.30145687
H -1.88704313  1.17913007  1.72190213
