52

O 2.97588625 4.8175615  2.01902471
S 3.81529362 3.53789317 1.88305905
O 5.26694225 3.58215715 1.89534711
N 3.4028186  2.49679883 0.67609076
S  2.19685378  2.80833634 -0.32375343
O  2.27938163  1.82456044 -1.42193471
O 0.97282573 3.16592368 0.41807153
C  2.52383272  4.57334519 -1.17428252
F  3.8366933   4.72849024 -1.42430552
F  2.05132042  5.56169051 -0.46456308
F  1.91233699  4.56386216 -2.37974926
C 3.34841919 2.52813349 3.42697398
F 2.0379615  2.62501915 3.49946857
F 3.78731547 1.26208734 3.30948914
F 3.87217147 3.0620744  4.54971553
C -1.18757456 -4.1364211   1.43997545
O -1.7296185  -4.10637969  0.13958934
C -2.76935176 -3.13917445 -0.12165733
C -3.54106422 -3.46178843 -1.39659423
O -3.85875884 -2.18992858 -2.07027817
C -2.90525579 -1.74880094 -2.96748383
C -2.81392414 -0.26999256 -3.05844862
O -2.14299447  0.42499325 -2.02257766
C -2.77706268  0.7030798  -0.79732238
C -1.66787482  1.22307793  0.13879288
O -1.06576258  0.11254601  0.81219689
C  0.09801326 -0.43462742  0.10513865
C  1.01678648 -0.91499066  1.2509911 
O  2.04093383 -1.84921974  0.87724922
C  3.28691645 -1.2195569   0.59377174
H -0.23348354 -4.68952095  1.39744624
H -0.95199839 -3.15422872  1.90819875
H -1.83023079 -4.65813972  2.19912578
H -2.31026369 -2.10520868 -0.1984049 
H -3.40124804 -3.06773606  0.82678757
H -4.57330506 -3.81643459 -1.11169825
H -2.9141752  -4.15505818 -1.97666153
H -3.04190173 -2.13984358 -3.9719584 
H -1.85509014 -2.11427068 -2.75380186
H -3.84255269  0.19719459 -3.22420754
H -2.25076494 -0.11152828 -4.00135898
H -3.53731945  1.56552428 -0.86602839
H -3.32164207 -0.19030165 -0.28124434
H -2.20168813  1.81243186  0.97101726
H -0.95486075  1.89545774 -0.35366899
H -0.20974034 -1.28951679 -0.56810373
H  0.49969445  0.39399714 -0.55691651
H  1.41611247 -0.0193271   1.69402712
H  0.41340615 -1.46372919  1.9715377 
H  3.85867008 -1.98936861  0.0894081 
H  3.77310007 -0.6768962   1.44232759
H  3.20582112 -0.35424676 -0.04781761
