52

O -0.42507965  0.23862372 -3.07870163
S  0.39818889 -0.53013037 -2.01179884
O -0.31809153 -1.64045205 -1.36982444
N  1.18347596  0.2483942  -0.86317757
S  1.97453682  1.65002918 -0.89877661
O 2.49038618 1.96499911 0.41869738
O  2.82199126  1.72659551 -2.14715141
C  0.55396044  3.03637007 -1.10106075
F -0.45106709  2.84267076 -0.243607  
F  0.03719063  2.9663239  -2.33638934
F  1.16472797  4.21316542 -0.9236204 
C  1.57816225 -1.53728105 -3.09784832
F  2.3833406  -2.3342645  -2.43509117
F  0.82205377 -2.22645306 -4.01806754
F  2.41511916 -0.71408058 -3.85275447
C  4.65232746 -0.4482582  -0.60994754
O  5.19540361 -1.09916037  0.56463675
C  4.36945693 -0.75868156  1.69636347
C  3.08536142 -1.52667163  1.74947359
O  2.34702378 -1.22502199  2.86034688
C  1.05890497 -0.49092423  2.62869812
C -0.02775682 -1.44927006  2.23688125
O -1.38172982 -1.26168655  2.71283459
C -2.31957831 -0.88893777  1.76168305
C -1.97172804  0.47652458  1.14853345
O -3.16875581  1.03311698  0.58608188
C -3.22373742  1.29396625 -0.86854914
C -4.31917376  0.45828418 -1.50643167
O -5.600514    0.82662994 -1.20645731
C -5.90070959  0.59742245  0.17840903
H  5.08678434 -0.79092738 -1.53959169
H  4.66199104  0.67273281 -0.59562226
H  3.62533748 -0.75804373 -0.82277471
H 4.31974522 0.33754131 1.66701292
H  4.82365099 -1.10614504  2.61029754
H  2.51035057 -1.36417871  0.76702663
H  3.42017892 -2.61495465  1.73645186
H 0.78212888 0.12907843 3.50417178
H 1.24925878 0.20908256 1.81439191
H  0.30389222 -2.46281994  2.62897353
H  0.01797559 -1.63569796  1.10320769
H -2.42953666 -1.64174669  0.93828068
H -3.26968901 -0.84016279  2.31258394
H -1.64902071  1.1538652   2.01732677
H -1.11959346  0.43824975  0.39826401
H -3.43064404  2.3824592  -1.08442177
H -2.25505081  1.08234202 -1.30738791
H -4.14358829 -0.60820947 -1.24616701
H -4.16189027  0.53133284 -2.58949301
H -6.94302021  0.53566514  0.37192661
H -5.47449765 -0.41403821  0.53613631
H -5.34845319  1.32273302  0.80602187
