52

O -2.86792992 -3.86582648 -1.30506451
S -2.40631365 -2.73848356 -2.10062777
O -3.07319723 -2.20772912 -3.30112442
N -1.9664675  -1.38914552 -1.25997281
S -1.62528554 -1.41308872  0.31620729
O -0.79275493 -0.19937575  0.5855331 
O -1.32737191 -2.70508495  0.95320906
C -3.30100423 -0.93798414  1.0152368 
F -3.32823047 -0.84925927  2.3588902 
F -3.65327621  0.29697519  0.51315606
F -4.25194437 -1.82848943  0.6770427 
C -0.64261534 -3.32724677 -2.7350297 
F  0.319431   -3.14673549 -1.79762263
F -0.24894147 -2.66774597 -3.86878371
F -0.73370383 -4.67876466 -2.97757022
C -1.85934616  1.30923499 -2.28942088
O -1.33631262  2.63494506 -2.30335958
C -0.55140051  3.05082981 -1.21474811
C -1.23972897  2.77399321  0.18593269
O -0.50669029  3.32739437  1.270169  
C 0.5676727  2.54592808 1.77049904
C 0.22460335 2.15236406 3.19217399
O 1.17163464 1.27573229 3.82392148
C 1.35068159 0.03097093 3.14351674
C  2.6145271  -0.06473061  2.29685879
O  2.870102   -1.35534345  1.86106792
C  2.30666173 -1.61968236  0.53736604
C  3.3560195  -1.11414189 -0.4927826 
O  3.00932796 -1.13013474 -1.85574004
C  1.88326125 -0.32042313 -2.22175208
H -1.15999699  0.59724439 -1.84719909
H -2.13275629  0.95367388 -3.26829163
H -2.71731902  1.17241175 -1.6170023 
H -0.4338538   4.14878524 -1.29328491
H  0.41396535  2.55878213 -1.15772152
H -1.43071791  1.70327917  0.3330975 
H -2.19379191  3.37453118  0.16419833
H 0.74676127 1.67193444 1.16862813
H 1.51544035 3.24934427 1.7058544 
H 0.17541354 3.13410604 3.75483315
H -0.70669599  1.64259866  3.06642393
H  0.40638077 -0.16205322  2.60136486
H  1.48959343 -0.6959095   3.98018645
H 2.67752616 0.69210575 1.4250004 
H 3.42092297 0.18435117 2.99229167
H  2.0048645  -2.69671788  0.41302473
H  1.34662566 -1.11965996  0.32844485
H  3.59951874 -0.09094354 -0.1648214 
H  4.23478953 -1.77114484 -0.36712199
H  1.0010005  -0.54528837 -1.56069064
H  1.61232488 -0.59362743 -3.266516  
H  2.16859661  0.75324468 -2.16788078
