52

O  0.49245787 -3.57181442 -0.43405569
S -0.10099392 -2.52516892  0.42041304
O -0.19113186 -2.79949893  1.8854876 
N  0.47270283 -1.0221874   0.1019646 
S  1.13045913 -0.67248056 -1.38915413
O  1.55935586  0.72471271 -1.21310915
O  0.38072218 -1.14046577 -2.54349621
C  2.79280206 -1.58614042 -1.59732479
F  3.57948939 -0.82986989 -2.33821402
F  3.32513667 -1.83184959 -0.39560056
F  2.68723662 -2.76946167 -2.27371587
C -2.00619983 -2.42698287 -0.21681789
F -2.22452102 -1.37657938 -1.0231816 
F -2.84972156 -2.25660829  0.80074192
F -2.36415521 -3.57671947 -0.8707525 
C  2.92261233 -3.12583359  2.4063735 
O  3.42965792 -1.82341152  2.77098486
C  2.46883463 -0.77741271  3.07699302
C 2.98194085 0.58719468 2.54752474
O 2.19884995 1.62828361 3.17329696
C 1.53515679 2.60744053 2.36480657
C 0.2833466  2.09466579 1.6410847 
O -0.67597807  3.16473602  1.64999578
C -1.46403851  3.20846352  0.47230003
C -2.44676421  2.04560129  0.38576351
O -3.41316423  2.30891582 -0.64040194
C -3.62449736  1.30780228 -1.55746136
C -2.55200419  1.14826674 -2.63859471
O -3.0908825   0.20535143 -3.55597073
C -2.27129007 -0.06809359 -4.70640776
H  2.21979492 -3.09599109  1.58561644
H  3.85289463 -3.725551    2.10538543
H  2.52035294 -3.66295119  3.26908128
H  1.49212979 -0.98428399  2.57585982
H  2.28954318 -0.71485729  4.16858448
H 2.94449594 0.6767901  1.42492741
H 4.0589017  0.59774586 2.84114904
H 2.26222316 3.07910172 1.62225691
H 1.16502493 3.41842522 3.05014881
H 0.46385761 1.69601706 0.59811265
H -0.0781037   1.23041351  2.24853397
H -2.07158224  4.19232645  0.42106582
H -0.84667944  3.24433552 -0.42519759
H -1.87563979  1.07302169  0.23303679
H -2.94018988  1.89151846  1.37196137
H -4.60737633  1.42374275 -2.035687  
H -3.69270056  0.2843123  -1.08615467
H -1.58817732  0.84792033 -2.18008337
H -2.36008195  2.1227961  -3.13641197
H -1.40254524 -0.60325211 -4.34717963
H -2.80564801 -0.71389271 -5.4021455 
H -1.96591346  0.87145683 -5.20633243
