52

O 1.16466871 0.09743572 1.69660887
S -0.32701096  0.10853673  1.85454168
O -1.03961173 -1.17819817  1.74774284
N -0.90349232  1.35153235  0.96439943
S -2.36677861  1.35743945  0.12714345
O -2.10631935  1.8543149  -1.2741234 
O -3.26597828  0.18810213  0.32520365
C -3.24426123  2.81805946  0.96437334
F -4.03456744e+00  3.36919881e+00  4.35913114e-04
F -2.43127311  3.7791694   1.41197979
F -4.04979605  2.38343827  1.94734867
C -0.67578734  0.77219582  3.66063351
F -0.48541849 -0.23868445  4.57099563
F 0.17085238 1.78566234 3.91463162
F -1.91296998  1.26058764  3.74042717
C 1.49927872 3.69680924 1.65286018
O 2.12226435 4.1550372  0.43121429
C  1.7047481   3.47076138 -0.70024059
C  2.77505735  2.40867789 -1.08473328
O  2.32796424  1.63221503 -2.23858899
C  1.93105119  0.35667391 -1.95047623
C  0.50432652  0.23338404 -2.28820739
O  0.18321722 -1.13254492 -2.4917597 
C -1.24386777 -1.31311251 -2.56077168
C -1.42214878 -2.8207012  -2.7606329 
O -1.48038827 -3.52988398 -1.54122601
C -0.41700953 -3.13701849 -0.69684985
C -0.48880331 -4.16914559  0.45463619
O  0.81083284 -4.80087524  0.47729151
C  1.63645378 -4.37806     1.58180581
H 1.50706112 2.62743314 1.86731005
H 0.41382784 3.87216718 1.55824587
H 1.87327741 4.29561913 2.51602936
H  0.70578522  2.98576251 -0.51733472
H  1.60077963  4.14984466 -1.56707443
H  3.59467399  3.03289988 -1.43185274
H  3.03339235  1.79436651 -0.25716759
H  2.53720215 -0.43790506 -2.48117295
H  2.05402424  0.10758162 -0.87664287
H -0.05757174  0.81353296 -1.52786159
H  0.43989019  0.77169124 -3.27940246
H -1.66277873 -0.65110052 -3.32267581
H -1.77354477 -1.0356429  -1.57003774
H -0.6035473  -3.18118113 -3.46396843
H -2.32464167 -3.02131793 -3.34343517
H  0.58546128 -3.13619927 -1.20996332
H -0.54914398 -2.12159276 -0.28616514
H -1.29319787 -4.86580927  0.2253342 
H -0.62644627 -3.60711792  1.38355726
H  2.72198915 -4.72369018  1.41101442
H  1.20497227 -4.75487275  2.51811263
H  1.68330264 -3.29547627  1.71848766
