52

O  2.55897034  4.28786203 -2.47079588
S  1.44922982  3.24055389 -2.42070636
O  0.13443616  3.47880854 -3.10716038
N  1.19661734  2.65313784 -0.89190238
S 2.31608511 2.34997547 0.23761291
O 1.727718   1.28192861 1.08520311
O  3.72205795  2.39910706 -0.19323388
C 2.26719909 3.84456904 1.4253685 
F 2.32290127 5.02106176 0.77834272
F 3.25930644 3.71290887 2.39317524
F 1.07149227 3.78533447 2.06955187
C  2.21435867  1.74823973 -3.29150333
F  1.23897426  0.82882529 -3.28646431
F  2.51730225  2.08907805 -4.56884627
F  3.28459078  1.18639659 -2.78725427
C  1.09116408 -8.13582126 -0.55862978
O  0.15321517 -7.19124328 -0.14385191
C  0.67520015 -5.88211348  0.08798637
C -0.46964935 -5.00108793  0.45858331
O  2.94708591e-03 -3.65624619e+00  7.17750458e-01
C -0.81850979 -2.80142847  1.50394947
C -0.798124   -1.40951809  1.09244751
O -1.28136143 -1.23333528 -0.25669449
C -1.37402518  0.07569058 -0.69333696
C -2.64920152  0.91538454 -0.1483029 
O -2.52562733  1.32904312  1.19922142
C -1.54008392  2.25361539  1.46104586
C -2.10182257  3.71268112  1.29592997
O -1.15725487  4.74267517  1.35188997
C -0.88585247  5.1615588   0.02341377
H  0.50816282 -8.95539536 -1.04718259
H  1.83685374 -7.76266974 -1.30176775
H  1.73616425 -8.50815147  0.21544648
H  1.27765725 -5.43336902 -0.71309841
H  1.32453465 -5.96808872  1.00161386
H -1.11599786 -5.52059288  1.23226377
H -1.25815577 -4.8900846  -0.31959914
H -0.57648524 -2.86676422  2.6146646 
H -1.85216407 -3.17290087  1.39082702
H  0.16968353 -1.00702406  1.21882512
H -1.54731256 -0.85311064  1.76907499
H -0.46548644  0.65528986 -0.42424293
H -1.49258276  0.12992731 -1.80858963
H -3.4364958   0.04117475 -0.1005667 
H -2.87875839  1.71908576 -0.8158007 
H -1.2071961   2.1263074   2.54950691
H -0.72395058  2.14085392  0.72656515
H -2.72907167  3.87799964  0.35544352
H -2.84114338  3.8495778   2.06094374
H -0.56374695  4.28130364 -0.53616526
H 1.33367065e-03 5.78844822e+00 6.46639567e-02
H -1.76809613  5.54054127 -0.49561537
