52

O 1.24861171 1.08395223 0.3092143 
S  2.4715436   1.51586704 -0.48669544
O  2.26351395  2.10950429 -1.79993696
N 3.45675871 2.6445243  0.21013886
S 4.28855524 2.13335627 1.57154861
O 5.19883842 3.28598096 1.86910532
O 4.67329775 0.67338756 1.59596645
C 3.01995059 2.19075709 3.10691565
F 3.77900942 2.34383522 4.22307187
F 2.08800968 3.08148794 2.91480711
F 2.3376609  1.00743901 3.248226  
C  3.66864297  0.06350039 -1.08015591
F  3.1334383  -0.30790245 -2.30635469
F  3.65718429 -1.00823325 -0.29886907
F  4.92035164  0.55372459 -1.2289827 
C -1.63584432  2.10250188 -2.99201455
O -1.67215192  0.72467622 -3.29088494
C -0.53874452 -0.00914421 -2.8990317 
C -0.75710719 -1.51374603 -3.28426954
O -1.27075188 -2.27599401 -2.22521109
C -0.37403042 -2.4234041  -1.1719936 
C -1.09644476 -2.60687495  0.13340606
O -0.21704965 -2.97386314  1.13367949
C  0.3742634  -1.85177196  1.80034711
C -0.59851384 -1.4425824   2.94430816
O -1.86142891 -1.12336326  2.50881508
C -2.29039939  0.2111826   2.29513674
C -2.15138083  0.82296235  0.90917135
O -3.38217737  0.97352691  0.34637177
C -4.08693229 -0.13694255 -0.26565174
H -0.62432449  2.56212415 -3.36599995
H -1.837355    2.42666267 -1.96391502
H -2.38876474  2.46745981 -3.75504255
H  0.33077881  0.49814425 -3.36581504
H -0.44029672  0.0815963  -1.80644896
H  0.263046   -1.9254472  -3.61810276
H -1.45211236 -1.54812076 -4.10197634
H  0.3333966  -3.28808597 -1.37691387
H  0.25098245 -1.50805771 -1.01195271
H -1.76003555 -1.74525509  0.3899581 
H -1.69882611 -3.50476495 -0.04239875
H  0.69644452 -1.06522248  1.11889639
H  1.32984036 -2.07618041  2.28169477
H -0.69638819 -2.34603629  3.63322803
H -0.04821057 -0.65386106  3.52080393
H -3.38513101  0.16854302  2.59552631
H -1.8168688   0.86346824  3.05336774
H -1.40494795  0.23810925  0.29495885
H -1.58503806  1.84461978  1.03402872
H -3.42431376 -0.7879932  -0.86771777
H -4.49889523 -0.88885555  0.49688168
H -4.78965352  0.33880868 -0.93323878
