52

O -1.78206301 -2.55554192 -0.16314598
S -0.47693901 -1.94652497 -0.37467861
O  0.01293577 -1.84702017 -1.75684313
N -0.31585322 -0.47259371  0.38625567
S -1.38589857  0.01246098  1.50170599
O -0.84128057  1.30679094  2.09253148
O -1.98149838 -1.00687116  2.41186533
C -2.74076761  0.85587073  0.46313705
F -2.25172149  1.41064502 -0.67076784
F -3.68343349 -0.08566902  0.12538023
F -3.29637759  1.86525636  1.17208818
C  0.6663973  -3.02498018  0.57945424
F  0.30542768 -4.36394806  0.57325292
F  0.67848544 -2.69032734  1.87744389
F  1.86723736 -2.93051154  0.05994186
C -3.56529254 -1.1818981  -3.41800761
O -3.11613694 -0.40670891 -4.49142103
C -1.74235443 -0.24787778 -4.6512615 
C -1.24860891  0.78010379 -3.61697472
O  0.02625085  1.29096254 -3.95135121
C  0.51520781  2.1308144  -2.8767807 
C  1.48696671  1.22077134 -2.01124482
O  2.41506734  2.05889459 -1.29684548
C 2.33978355 1.97885638 0.11395452
C 2.86938214 0.69890796 0.75465742
O 2.86920859 0.9830451  2.20507142
C 2.29049517 0.02705261 3.07397983
C 2.21987329 0.55490109 4.50543725
O  1.55637069 -0.26541794  5.47082636
C  0.27815269 -0.81195477  5.10822678
H -3.33644547 -0.70865505 -2.47882895
H -4.61152803 -1.38071415 -3.47824257
H -3.10588749 -2.20610311 -3.34287718
H -1.1886926  -1.19167805 -4.4069762 
H -1.54743181  0.05695273 -5.65409646
H -1.35750851  0.30214578 -2.55155348
H -2.08713717  1.56026359 -3.62005046
H -0.28425017  2.62911902 -2.19742426
H  1.08400825  2.95118252 -3.36804777
H  0.89384526  0.49468224 -1.4013605 
H  2.19023898  0.68060175 -2.76020364
H 3.04330086 2.73224656 0.47498026
H 1.34056457 2.23691019 0.53378399
H  2.21201078 -0.14793244  0.46155348
H 3.88291263 0.5061116  0.27475422
H  2.8590828  -0.93771754  3.04762225
H  1.18062514 -0.13922999  2.74976982
H 1.7193441  1.57298863 4.55571054
H 3.22930166 0.60021042 4.94109608
H  0.52891837 -1.72720992  4.5264449 
H -0.2622543  -1.07650119  6.02761159
H -0.35203446 -0.14516185  4.47044656
