52

O -0.36288751 -2.37185755  3.33419887
S -0.79589968 -2.27349551  1.93203087
O -2.13726131 -2.70572817  1.50997385
N -0.53779333 -0.80731788  1.37781338
S 0.41960096 0.24252989 2.31390486
O 0.85013817 1.32238381 1.32387034
O  1.39685992 -0.34191661  3.26770638
C -0.72179847  1.23961737  3.48102988
F 0.12511012 1.97743795 4.2264432 
F -1.48831179  2.02092851  2.70229843
F -1.57231594  0.56685036  4.32142949
C  0.41952675 -3.47183208  1.02169918
F  1.69259182 -3.44329918  1.4253195 
F  0.40548547 -3.27926522 -0.31808272
F -0.05799305 -4.75540992  1.27670461
C -4.24454389 -1.72536134 -0.61687177
O -4.84063213 -0.4800552  -0.97994136
C -4.75699116  0.56152987  0.02566923
C -3.3459419   1.19735063  0.19240294
O -2.71294664  1.78582363 -0.92353485
C -2.09905176  0.98107136 -1.99857892
C -0.56695109  1.11129906 -1.72337208
O  0.13668388  0.39722117 -2.71511059
C  1.22029346 -0.48734539 -2.3421405 
C  2.54705571 -0.17605587 -3.03447389
O  2.99824245  1.14887777 -2.81792762
C  3.88574041  1.35489839 -1.74806175
C  3.77729186  0.62982361 -0.44631544
O 4.74110747 0.85021903 0.55519893
C 4.23191011 1.50383143 1.63866814
H -4.84861053 -2.6616623  -0.76593479
H -3.71413401 -1.70465248  0.3578668 
H -3.40616437 -1.87829695 -1.36263444
H -4.92812012  0.14536937  1.01115813
H -5.4414934   1.28763946 -0.38207079
H -2.82219048  0.30269598  0.54930063
H -3.29922101  1.86483909  1.03018061
H -2.44947792 -0.07546067 -2.03688251
H -2.47682462  1.4031894  -2.9900319 
H -0.33284257  2.17819541 -1.79424679
H -0.41054326  0.98128085 -0.63670177
H  0.98852238 -1.5189876  -2.7071882 
H  1.25498498 -0.4924424  -1.1647196 
H  3.27821945 -0.93101187 -2.76934388
H  2.41370955 -0.33278103 -4.12566038
H  4.94782275  1.09981058 -2.12292704
H  3.90456082  2.440227   -1.52000492
H  2.78214135  0.78723489 -0.00885588
H  3.752513   -0.45249884 -0.81464292
H 4.88699072 1.29902418 2.44072286
H 3.24401592 1.04653678 2.01991986
H 4.06982244 2.63899722 1.53074635
