52

O -0.71563935  3.380346   -1.33759681
S -1.00380435  1.90551624 -1.36475297
O -0.27622857  0.94500288 -2.27475382
N -1.15921376  1.17143612  0.07993897
S -1.85260856  2.16032337  1.22169668
O -2.1405285   1.23526531  2.36066857
O -2.79619507  3.22911332  0.81760231
C -0.47338915  3.22642334  1.94576076
F -1.06932346  3.70050122  3.03350956
F 0.54572702 2.41297362 2.37825248
F -0.02946083  4.17654556  1.17946834
C -2.82086518  1.92223593 -2.0875354 
F -3.3725395   3.15193908 -2.15489123
F -3.53757666  1.13507968 -1.2332769 
F -2.87851006  1.42757744 -3.32197739
C  5.21861262  0.8201224  -1.88817393
O  4.28771795  1.84095345 -1.80329451
C  2.98972039  1.29450978 -1.67224938
C  2.63209989  0.63962089 -0.31593462
O  3.11412542 -0.65733968 -0.16328198
C  2.77574662 -1.25881085  1.06941827
C  1.2800775  -1.22732213  1.28517267
O  1.0583671 -1.849204   2.5015356
C -0.18277622 -1.48707516  3.09633476
C -1.43182528 -2.38291832  2.66691239
O -1.38627663 -2.59658958  1.20256063
C -2.21860929 -1.82946488  0.36575862
C -3.1005496  -2.67274504 -0.59032075
O -3.26191686 -1.90496025 -1.8627591 
C -2.06097783 -1.88127044 -2.58502103
H  5.25342816  0.14474924 -0.99011532
H  6.2350241   1.25067161 -2.00013887
H  5.11104336  0.21981772 -2.81148818
H  2.35095268  2.18927503 -1.77112796
H  2.81898832  0.60964778 -2.52188763
H  1.48543458  0.70631378 -0.35690195
H 3.1232009  1.33778143 0.48475723
H  3.18570372 -2.31501502  1.08179228
H  3.24394377 -0.71883325  1.9788483 
H  0.76279641 -0.25924689  1.29328843
H  0.73089132 -1.71445573  0.39545458
H -0.36974227 -0.41363055  2.88877333
H  0.01191772 -1.47903163  4.19191763
H -1.32500656 -3.36403454  3.16867271
H -2.35866837 -1.85733596  2.93747835
H -2.87611251 -1.1356465   0.99594339
H -1.56047743 -1.15866602 -0.22583738
H -4.21387313 -2.75346151 -0.25100047
H -2.65478716 -3.7159658  -0.61639422
H -1.39529094 -0.99278152 -2.42908512
H -1.40255851 -2.74582154 -2.32161547
H -2.29018792 -1.86211541 -3.67010446
