52

O  1.30351201 -0.57306086  1.3180156 
S  0.41781302 -0.51034735  2.51018322
O -0.4438891  -1.66826858  2.90847434
N -0.30269372  0.9156755   2.6237666 
S -1.3467237   1.23820834  1.38611937
O -1.08133506  2.60275477  0.86940752
O -1.61779776  0.12872018  0.44220729
C -2.97488857  1.41668043  2.29956177
F -3.82702315  2.10616788  1.48259762
F -2.93508927  2.22929528  3.42082757
F -3.44374618  0.22521961  2.59965856
C  1.58158391 -0.22689136  4.10366871
F  2.73812548 -0.88435827  4.00919739
F 1.82243072 1.03797034 4.45063872
F  0.88213252 -0.76916297  5.17961325
C 2.1942015  3.18710379 1.90627936
O 2.54774226 3.94426065 0.7982008 
C  1.90941171  3.55636559 -0.39731055
C  2.66548243  2.31545214 -0.96008323
O  2.47969018  2.07927361 -2.30975382
C  1.8746606   0.80690588 -2.54700571
C  0.29575139  1.00265963 -2.50574602
O -0.29213059 -0.24409973 -2.85872678
C -1.71227434 -0.18810086 -2.66117328
C -2.35574272 -1.39183928 -3.35879651
O -2.52292399 -2.51348081 -2.51518924
C -1.34867347 -3.2393996  -2.22744004
C -1.11297494 -3.25278782 -0.65803628
O -0.1625214  -4.24140358 -0.27000678
C -0.23509386 -4.59473258  1.13448386
H 3.09646121 2.76330985 2.36863725
H 1.47556079 2.36373762 1.70184706
H 1.72985827 3.83748248 2.65869178
H  0.82306217  3.35919046 -0.25873845
H  2.09795466  4.3357298  -1.21970332
H  3.70999639  2.72100147 -0.89959164
H  2.51941854  1.42843137 -0.30321731
H  2.1404509   0.478683   -3.56785257
H  2.25227186  0.17467189 -1.75916794
H -0.06419106  1.40002265 -1.57325617
H  0.09837738  1.84113706 -3.26299252
H -2.09993672  0.78231388 -3.06323481
H -1.98846891 -0.25880695 -1.49923703
H -1.72401262 -1.74585413 -4.18127118
H -3.36236886 -1.17055462 -3.77676028
H -1.39076934 -4.23866633 -2.66263556
H -0.46393618 -2.71621833 -2.66933127
H -2.17075346 -3.52462785 -0.39796894
H -0.87333487 -2.23038418 -0.28582286
H  0.39579005 -5.4647194   1.24356339
H -1.25796912 -4.87932091  1.36975921
H  0.05952302 -3.75133877  1.86464982
