52

O  0.20483393 -0.75845812 -3.143791  
S  0.58939452 -1.32539851 -1.8075183 
O -0.29117682 -2.34579173 -1.17083294
N  0.81481584 -0.18501409 -0.59435206
S  1.76508219  1.07366661 -0.79425717
O 2.00082522 1.71015814 0.48671646
O  2.93994742  0.87738209 -1.73666869
C  0.65179231  2.31843905 -1.68445346
F -0.52522786  2.21945616 -1.11193721
F  0.46970483  2.09159875 -3.0249052 
F  1.14331926  3.5303195  -1.5991941 
C  2.18541541 -2.39796409 -2.1373381 
F  2.78439975 -2.86717514 -0.98462341
F  1.72263694 -3.42768995 -2.80800849
F  3.12619617 -1.84907143 -2.97451875
C  5.4451886  -1.05102518  0.15780979
O  5.19340347 -1.02805491  1.52488374
C  4.0981656  -0.34679287  2.02028141
C  2.85182294 -1.26684183  2.15316798
O  2.02232524 -0.79388538  3.24195543
C  0.88883142 -0.09891121  2.77288423
C -0.19749032 -1.03855958  2.30003613
O -1.47315333 -0.64204405  2.84127787
C -2.5454382  -0.60492432  1.92159866
C -2.44807346  0.66872552  1.01305549
O -3.47981979  0.54903808 -0.00714744
C -3.18020817  1.13791383 -1.3073825 
C -4.296376    0.72874189 -2.26412255
O -5.31367922  1.69144806 -2.34609135
C -5.9573787   2.04392975 -1.1324355 
H  5.1663333  -2.02721192 -0.26169303
H  6.51517583 -0.897481   -0.0969929 
H  4.86113295 -0.27600953 -0.35376275
H 3.75222913 0.56208055 1.41387052
H  4.29824749 -0.13571878  3.12193713
H  2.33203042 -1.16602137  1.1635883 
H  3.01179486 -2.39860808  2.2417727 
H 0.42769472 0.32545709 3.69650795
H 1.1183202  0.6662364  2.02961926
H  0.0266089  -2.06649148  2.58324882
H -0.37925028 -1.00119535  1.18268934
H -2.59365384 -1.53099416  1.2723586 
H -3.50226649 -0.52152709  2.54745266
H -2.44581253  1.60844887  1.57249648
H -1.49513774  0.59400066  0.49380817
H -3.08192359  2.27771258 -1.17630059
H -2.25251822  0.72459442 -1.69700423
H -4.59380817 -0.33070168 -1.9299374 
H -3.98531776  0.56895649 -3.24725921
H -6.87194143  2.64907224 -1.28008806
H -6.22155019  1.05173523 -0.60854108
H -5.27646676  2.71045089 -0.47185963
