52

O -3.48088372 -0.38363285 -1.32283921
S -2.5903359   0.06248532 -0.20935931
O -2.69056575  1.33837277  0.50430001
N -1.00806628 -0.17816857 -0.44152412
S -0.31271653 -1.50950441 -1.04532366
O  1.10956934 -1.28624831 -0.81360685
O -0.97335843 -2.77823046 -0.69080526
C -0.4718925  -1.51213054 -3.04338907
F -1.7263534  -1.72665144 -3.56203067
F  0.35324969 -2.56836944 -3.37037426
F -0.07159966 -0.33023045 -3.50399861
C -3.3213499  -0.95966434  1.14087301
F -4.67960751 -0.79290418  1.22869654
F -3.13960907 -2.26834916  0.8759564 
F -2.81693658 -0.61412679  2.29259682
C  2.51018434 -5.05517955 -0.46996072
O  2.55710591 -4.68560932  0.89246195
C  2.79581608 -3.26957322  0.99760646
C  2.32935995 -2.86088071  2.45700449
O  2.7944165  -1.5236933   2.84580387
C  2.15943211 -0.45956883  2.20049633
C  0.8455343  -0.01528376  2.82452237
O 0.60430958 1.34859908 2.82971678
C 0.04878652 2.08752721 1.69429201
C 1.01682861 2.21929878 0.50374434
O  0.5931465   3.26107956 -0.47607457
C -0.41714024  2.76517525 -1.4250319 
C -1.69733389  3.56627872 -1.39990797
O -1.42588671  4.98090765 -1.56935642
C -2.06150597  5.55195132 -2.72746065
H  3.3220167  -4.70385358 -1.07800132
H  1.54535274 -4.80138802 -0.9457811 
H  2.71333997 -6.18620788 -0.44669278
H  2.13186384 -2.66108886  0.31559241
H  3.84784697 -3.07862292  0.7202725 
H  1.23174624 -2.84198387  2.40860094
H  2.68930285 -3.55308198  3.23494241
H 3.02509777 0.33009379 2.21164524
H  2.0370457  -0.64071434  1.13185854
H  0.6395474  -0.27872064  3.82334378
H  0.08399451 -0.61187888  2.26129092
H -0.92451716  1.66321088  1.4017537 
H -0.02782843  3.13038521  2.01714727
H 1.92714268 2.50653219 1.01974354
H  1.10268466  1.2646806  -0.10048594
H -0.1023337   2.75032956 -2.52649081
H -0.67652116  1.67349835 -1.16859392
H -2.22853413  3.37766995 -0.41808865
H -2.35307455  3.10813743 -2.14800139
H -2.01003687  6.62446573 -2.54101815
H -1.62992545  5.23745127 -3.6984038 
H -3.17680793  5.28740998 -2.69166153
