52

O 3.54561918 1.11998695 1.10722556
S 2.2630372  1.15420656 0.41767104
O  2.1731818   1.04208804 -1.08374021
N 0.95511784 0.39473002 1.10480047
S  0.99629317 -0.13958234  2.69069448
O -0.38798764 -0.52775412  2.93625066
O 1.71484682 0.60567998 3.71818735
C  1.96301481 -1.81194429  2.41946944
F  2.65998109 -1.81383909  1.33736188
F  2.87552087 -2.12470743  3.46733567
F  1.09783621 -2.8641978   2.44038637
C 1.6802168  2.97291158 0.70034852
F 0.40451956 3.11766722 0.38583564
F 2.39874058 3.83910866 0.06546937
F 1.75371925 3.15005913 2.11244349
C -2.7330084   2.73433833  4.00658744
O -2.48935889  3.60727754  2.96223772
C -2.77189999  3.05420409  1.67397781
C -2.33670814  1.6465332   1.25840688
O -2.87946571  1.53050651 -0.11179967
C -2.34049058  0.64709701 -1.05537419
C -2.92971641 -0.72013189 -0.72950023
O -2.54466588 -1.72156947 -1.66770923
C -1.26206665 -2.22779905 -1.73613378
C -0.93319475 -2.16725121 -3.27871146
O  0.1489628  -2.92325254 -3.84544336
C  1.42208235 -2.23942353 -3.6651387 
C  2.12801671 -2.44010057 -2.31650033
O  3.4767633  -2.26369768 -2.47216355
C  4.04756422 -1.18362534 -1.68915812
H -2.39138408  3.11501693  4.95815384
H -2.36196552  1.77264281  3.80052357
H -3.82061509  2.52415828  4.08394128
H -3.88599157  3.04770078  1.41159444
H -2.48574043  3.70287208  0.82232719
H -1.22594658  1.53178149  1.33588302
H -2.78768025  0.92292254  1.95752169
H -2.43965678  0.97849976 -2.10046522
H -1.22207936  0.69478053 -0.91170434
H -4.00951244 -0.6017266  -0.87796822
H -2.74037598 -0.96593235  0.38109754
H -1.25889201 -3.26256004 -1.29417359
H -0.48166928 -1.59019085 -1.20045901
H -1.86321094 -2.49426123 -3.80566864
H -0.85252895 -1.03796435 -3.60464571
H  1.30822083 -1.13802278 -3.87741727
H  2.14618743 -2.67341553 -4.39178601
H  1.90692417 -3.47556803 -1.85328578
H  1.68179682 -1.73505451 -1.470224  
H  3.52110453 -0.30238206 -1.75946378
H  4.11686242 -1.41626359 -0.62754665
H  5.04968152 -1.04455175 -2.12955129
