52

O -2.07171156 -1.37515077 -3.67654083
S -1.20207902 -2.21991908 -2.86816687
O -0.7996369  -3.57762318 -3.29540751
N  0.2371316  -1.53931003 -2.34966434
S  0.33455538 -0.10187538 -1.60550426
O  1.56048915 -0.04224331 -0.71186127
O -0.90267084  0.39434113 -0.95407356
C  0.75875845  1.08153946 -2.9944859 
F  2.00740537  0.78304348 -3.35742024
F -0.0501503   1.20763148 -4.00766224
F  0.77972436  2.30788826 -2.42734766
C -2.17002018 -2.66952974 -1.12989769
F -3.27466675 -1.89598815 -0.91942532
F -1.45749099 -2.55900497 -0.06387374
F -2.53100642 -3.93410261 -1.33552728
C  2.54550575 -4.06641519 -2.64582561
O  2.44397163 -4.60902999 -1.36144484
C  1.48481807 -4.16462742 -0.48042859
C  2.15727724 -3.74110821  0.8369558 
O  1.149335   -3.68329862  1.91243333
C  0.5619829  -2.37944269  1.9954322 
C  1.15308292 -1.35337326  3.03353628
O  0.24916419 -0.26024015  3.05514198
C 0.60175561 0.86588587 2.17154463
C -0.73325642  1.66606676  2.05313789
O -0.42013027  3.00252418  1.72439129
C -1.32293493  3.68538732  0.87776647
C -1.21460288  5.22788683  1.16142834
O -2.53759657  5.80304298  0.89541654
C -2.57408874  7.19017927  0.73238088
H  1.59543737 -4.09399383 -3.15649474
H  3.42789057 -4.59976329 -3.18505505
H  2.82605259 -3.01457116 -2.59087465
H  0.76443689 -5.01915449 -0.21308608
H  0.87764046 -3.35719015 -1.02561486
H  2.73424426 -2.78733523  0.76874335
H  2.82970265 -4.55577158  1.06248301
H  0.4931656  -1.83224038  1.07882747
H -0.49523013 -2.54901551  2.25609438
H  1.14072677 -1.75412998  4.04640745
H  2.1820491  -1.10999215  2.84518347
H 1.01411595 0.43173436 1.20864809
H 1.34277907 1.49721679 2.67969615
H -1.35452933  1.14083472  1.24320718
H -1.36763511  1.70290636  2.99139168
H -1.11666858  3.38765181 -0.19855566
H -2.40623307  3.37119415  1.08362433
H -0.89922426  5.3396011   2.17860834
H -0.48415237  5.76118639  0.51978532
H -2.25551755  7.62605235 -0.26933147
H -1.93715     7.82770776  1.48026485
H -3.67481573  7.5439377   0.93103954
