52

O  1.81171739  1.09892729 -1.4166311 
S  0.38107971  1.59752145 -1.26434505
O -0.80656735  0.83590814 -1.70734971
N -0.01757308  2.34310373  0.09761317
S 1.07659406 2.79185184 1.20333729
O 0.33374678 3.57913072 2.2537447 
O 2.35028683 3.22068106 0.60787924
C 1.59066361 1.35534304 2.23499003
F 2.64040458 1.74021326 3.04347686
F 0.66385915 0.75637662 3.05798118
F 2.05687678 0.34555352 1.39581416
C  0.46132394  3.06456104 -2.48306219
F  1.46899593  3.88760225 -2.07362459
F -0.69517076  3.78621627 -2.50792554
F  0.60476502  2.57331839 -3.75183291
C  1.75335458 -1.00829157 -3.67942057
O  2.62967491 -2.08381942 -3.41200296
C  3.35506452 -1.95520178 -2.14244722
C  3.04897619 -3.23118429 -1.41067293
O  1.7179481  -3.59434729 -1.08967126
C  1.14775109 -2.88855201 -0.04226959
C -0.36813361 -2.65651315 -0.1962932 
O -1.18227381 -2.59600032  0.93692001
C -0.73183971 -1.57494618  1.77720132
C -1.82935637 -1.13128607  2.7805579 
O -2.59493009 -0.16496198  2.14962665
C -3.16238503  0.90751094  2.84774584
C -3.36052054  2.08638593  1.91380421
O -4.21279581  1.87912409  0.78585716
C -3.56845046  1.55459543 -0.45788931
H  0.8641287  -1.38234833 -4.21245194
H  2.24524256 -0.20733617 -4.20710123
H  1.31840179 -0.58078545 -2.72276488
H  4.47127348 -1.8528629  -2.41620814
H  2.90802928 -1.13387647 -1.54681169
H  3.69555424 -3.11189289 -0.44007464
H  3.46061902 -4.04266209 -1.98001627
H  1.22252348 -3.51111294  0.89111122
H  1.66080211 -1.94365133  0.14370695
H -0.45852603 -1.7985713  -0.86211912
H -0.76946362 -3.46217478 -0.8264115 
H -0.50665751 -0.73235581  1.16905978
H  0.11517939 -1.94149909  2.30938618
H -2.41606415 -1.9332083   3.23974702
H -1.24248884 -0.61560244  3.70303671
H -4.16970066  0.62919505  3.17378212
H -2.50301264  1.27494853  3.60318307
H -2.34874472  2.33852547  1.54050596
H -3.66205977  2.93498099  2.51474682
H -2.8224366   2.31129584 -0.7468681 
H -3.20913178  0.50041066 -0.61455042
H -4.41655432  1.7417628  -1.16399946
