52

O -2.43729667 -4.05825402  1.0002971 
S -2.98556804 -2.95481693  0.18986576
O -4.40396282 -2.49135666  0.15168327
N -2.08930789 -1.56564962  0.21229662
S -0.64904756 -1.23601078  0.87298207
O  0.14786252 -0.41578178 -0.07376631
O -0.08618192 -2.27588632  1.76652154
C -1.35920269  0.02057577  2.07652997
F -0.32140814  0.60724675  2.73391564
F -2.02699238  1.02827604  1.51854506
F -2.1385994  -0.65194193  2.95953666
C -2.72905091 -3.58491803 -1.61624163
F -1.43525117 -3.52057147 -1.89919647
F -3.43599119 -3.09364935 -2.61201885
F -3.03083353 -4.97637314 -1.61363291
C -4.1658134  -0.05880625 -2.66097151
O -4.18177517  1.34340897 -2.65393071
C -3.00284225  2.07256739 -2.78066242
C -1.92543461  1.74230074 -1.71992371
O -0.85685648  2.59286089 -2.08540845
C  0.39277873  2.34252192 -1.36348107
C  0.43639948  3.51115307 -0.33387608
O 1.67749003 3.68064283 0.35284472
C 2.030821   2.62388236 1.19986173
C 3.41990067 1.97670067 0.75821037
O 3.81466964 1.08164075 1.76484404
C  3.21778085 -0.19470229  1.93142226
C  4.46182501 -1.12544834  2.04056695
O  4.17638766 -2.38645673  2.66038298
C  3.6486958  -3.33286746  1.75911976
H -5.1807523  -0.38925116 -2.57081439
H -3.50799617 -0.52949296 -1.80577734
H -3.87543172 -0.57796904 -3.68773722
H -3.27046387  3.1492691  -2.67608261
H -2.49581795  1.89807172 -3.80203038
H -1.53448798  0.68988283 -1.65445322
H -2.43729098  1.98001886 -0.77033032
H  0.46485562  1.31712583 -0.91118553
H  1.21846264  2.46831888 -2.14689878
H  0.2027353   4.45206009 -0.84668443
H -0.444219    3.38689721  0.39243257
H 1.34028458 1.73495214 1.28523286
H 2.17877558 2.92830032 2.21958521
H  3.25414397  1.50418219 -0.2322927 
H 4.22003298 2.77721105 0.66763542
H  2.60822016 -0.25141004  2.89189404
H  2.54694212 -0.45500023  1.09295743
H  4.91857427 -1.27216174  0.97353715
H  5.14073875 -0.51840799  2.63603112
H  4.47527984 -3.94018186  1.27780048
H  3.02274075 -2.91012823  0.93782664
H  2.99147828 -4.14257398  2.19303766
