52

O -3.1905809   2.52411441 -0.934343  
S -3.1807679   1.50919514 -2.0228637 
O -4.05802901  1.78270213 -3.21875198
N -1.6629621   1.13335846 -2.47954968
S -0.29892277  1.0739499  -1.66825632
O  0.69430362  0.33281903 -2.48262704
O -0.49316278  0.5642521  -0.28227752
C  0.5035546   2.72961286 -1.5669006 
F  1.63511771  2.69936883 -0.85760412
F  0.85394882  3.07517409 -2.83524288
F -0.28931038  3.66857241 -1.01507279
C -3.8715168  -0.19157185 -1.41244726
F -3.41486999 -0.58059573 -0.1644518 
F -3.70003797 -1.21815117 -2.27878494
F -5.2223653   0.13809987 -1.3130517 
C -2.65145273  2.94140441  1.9167156 
O -1.8014809   3.89367476  2.61019618
C -0.44472604  3.459858    2.3928466 
C -0.01991971  2.34891437  3.30788254
O 1.28608311 2.0312263  3.12492023
C 1.64544776 0.63039524 3.06291533
C 2.04357202 0.23751296 1.57585087
O  2.61133804 -1.04734668  1.71082137
C  3.09612122 -1.62929453  0.50113936
C  2.38843212 -2.90724103  0.13816521
O  2.8881017  -3.2524406  -1.14010817
C  2.26012812 -4.30216737 -1.82719139
C  0.86968314 -3.95974256 -2.36394695
O -0.08057131 -3.73976415 -1.34016155
C -0.71092162 -2.49242492 -1.44503397
H -2.2269727   2.03930163  1.49770974
H -3.03687115  3.41837461  0.96476308
H -3.54487637  2.61871165  2.5139006 
H -0.45150525  3.09150891  1.37433945
H 0.25702208 4.28737219 2.34462426
H -0.36388982  2.62338492  4.40599576
H -0.66263768  1.44615142  3.07437318
H 2.53098457 0.62790276 3.75635678
H 0.80029067 0.11071805 3.56085046
H 2.75563913 0.99907549 1.15716165
H 1.11615769 0.29902878 0.93500528
H  4.14079638 -1.64238235  0.58724041
H  2.91188184 -1.03146298 -0.38844704
H  2.50005641 -3.77644159  0.81545288
H  1.31266358 -2.76329134  0.03391788
H  2.340707   -5.23104284 -1.17298765
H  2.96281846 -4.48569928 -2.71261702
H  0.67306458 -4.79504986 -3.11263767
H  0.93728505 -2.99030718 -2.97635044
H -0.07972763 -1.57628818 -1.68983256
H -1.50071746 -2.53424728 -2.23867715
H -1.05640315 -2.18878219 -0.4229278 
