52

O  0.40175555  4.27953669 -1.08631796
S -0.7004656   3.23171322 -1.06409065
O -1.99132753  3.44279618 -1.7800207 
N -0.18606014  1.7611677  -1.27729315
S  1.26700796  1.21778922 -0.86601899
O  1.13189855 -0.23661419 -0.63122987
O 1.92462609 1.98000977 0.24675663
C  2.14461091  1.62607473 -2.50828954
F  1.47492267  2.47279235 -3.26749368
F  3.36465342  2.18660176 -2.20916166
F  2.38156884  0.55456035 -3.25448761
C -1.35406923  3.0832197   0.83349772
F -2.59638481  3.69612802  0.85218441
F -0.61199666  3.83155933  1.64210425
F -1.50490164  1.78619291  1.29908201
C -0.0652165  -2.18460518 -2.63432254
O -1.39262732 -2.71952442 -2.51679155
C -2.33298942 -2.18323043 -3.46739696
C -3.04742434 -0.95266294 -2.99014602
O -3.65469057 -1.2142058  -1.81359327
C -3.34093444 -0.4483599  -0.61224882
C -2.14096481 -1.11372421  0.1402736 
O -2.44887203 -1.43139934  1.52492144
C -1.27078924 -1.71556155  2.25565672
C -0.31195719 -0.6097974   2.59680976
O  0.57512225 -1.12920042  3.66152338
C  1.73139355 -0.37387417  3.80957946
C  2.7513459  -0.45560493  2.67781292
O 3.8291886  0.2525372  3.28228575
C 4.88647747 0.3666219  2.26615283
H  0.6825451  -3.02240138 -2.73973409
H  0.18669748 -1.56204863 -1.71314473
H  0.04619776 -1.46327196 -3.49724806
H -3.1496166  -2.92889349 -3.56124765
H -1.81620821 -2.12665956 -4.44000593
H -3.87600824 -0.65924844 -3.71469893
H -2.27234888 -0.0998334  -3.0377162 
H -3.24053439  0.64175941 -0.82293321
H -4.2594006  -0.48229417  0.07503744
H -2.01210275 -2.02557303 -0.48148117
H -1.24457062 -0.45700698  0.04131397
H -0.7238765  -2.56345204  1.7791874 
H -1.52503956 -2.04377789  3.20761784
H  0.33538583 -0.28353364  1.75052923
H -0.84997466  0.29309853  2.96018007
H 1.55061208 0.70874733 4.11108356
H  2.24648793 -0.7287483   4.75976552
H  2.98576879 -1.47909226  2.40289392
H 2.38719717 0.05532709 1.74596758
H 4.59659764 0.96707497 1.39999505
H  5.30552398 -0.60760008  1.96233115
H 5.73376694 0.86649178 2.70256933
