52

O -1.6714886   2.97309748  0.83105416
S -1.70538243  1.52508556  0.54225227
O -1.78971242  0.60978657  1.69265178
N -0.59042466  1.04584525 -0.53914706
S  0.17242762  1.96121402 -1.58743869
O  1.08289137  0.95604705 -2.26086763
O -0.67079397  2.91291556 -2.37725115
C  1.42040166  3.05681105 -0.55236066
F  2.44863153  3.23070143 -1.42665017
F 1.92917764 2.41499544 0.4988769 
F  0.88353119  4.24831757 -0.18504448
C -3.2618802   1.10321497 -0.42204356
F -4.06171748  2.13383266 -0.3170743 
F -2.93881978  0.95901824 -1.74201224
F -3.88936316 -0.02423333 -0.07240797
C -1.75511413  0.59699355 -4.84090446
O -1.0432269  -0.53323605 -5.27394848
C  0.1732499  -0.74073071 -4.61256164
C -0.09197603 -1.57747858 -3.38779917
O  1.14137103 -2.04521592 -2.81981648
C  1.2586414  -2.06182428 -1.38465239
C  0.05217429 -2.64622043 -0.61300067
O  0.34130849 -3.03316582  0.76070236
C  0.25273335 -1.92725979  1.67923148
C  1.52618545 -1.04051297  1.697292  
O  1.83534312 -0.32226933  2.93544124
C 0.83644511 0.78898036 3.12432482
C 0.01194705 0.6820839  4.40985057
O 0.78984669 0.76128451 5.55280337
C  1.40525639 -0.43263303  5.94695278
H -1.93967205  0.60790606 -3.78745261
H -2.68034536  0.52035895 -5.3868208 
H -1.134215    1.47323996 -5.08737658
H  0.71773673  0.18556576 -4.30882883
H  0.87087577 -1.26512512 -5.33672949
H -0.57708485 -0.92231392 -2.63699248
H -0.63894413 -2.55616146 -3.7048634 
H  2.20439536 -2.69327959 -1.23270251
H  1.5675125  -1.04921167 -1.1137065 
H -0.17524083 -3.56057667 -1.20316197
H -0.88006806 -2.01072784 -0.58089655
H -0.65389849 -1.31424358  1.44533281
H  0.13353627 -2.33509261  2.66938162
H  2.39178587 -1.76694916  1.61125106
H  1.56292358 -0.27235045  0.85267266
H 1.48404803 1.68801149 3.23290771
H 0.22634857 0.9197705  2.21703627
H -0.63191641 -0.31030701  4.18382819
H -0.73989444  1.52761315  4.39925553
H  2.20956735 -0.23133931  6.7198565 
H  0.75557059 -1.09643785  6.63727184
H  1.83531543 -1.11379452  5.15428502
