52

O 3.31661115 4.61294856 1.90793086
S 3.83491962 3.2464627  1.80221092
O 5.27403214 3.00980413 2.09513943
N 3.35905552 2.50128687 0.37823038
S  1.90584767  2.97788735 -0.28051357
O  1.62597243  2.03371955 -1.35708316
O 0.76689152 3.3461157  0.58099176
C  2.40887887  4.6147228  -1.27055763
F  3.68692579  4.74655841 -1.67204252
F  2.11266408  5.68089226 -0.51413402
F  1.61265028  4.57865929 -2.35575918
C 2.9367495  2.18629463 3.25288693
F 1.64135395 2.30460857 3.28154719
F 3.24779502 0.88234994 3.04893655
F 3.53064989 2.53169155 4.46826109
C -0.63188565 -4.47811202  0.96702988
O -1.76328097 -4.55568916  0.14703913
C -2.56720331 -3.34483281  0.06165976
C -3.48845221 -3.32029712 -1.13438872
O -3.55569904 -1.97354205 -1.59029884
C -2.70936514 -1.68612155 -2.66417317
C -2.9291827  -0.1153714  -2.75524048
O -2.21673279  0.42036545 -1.67472402
C -2.9325386   0.81957277 -0.52218861
C -1.9081723   1.06802907  0.61926126
O -1.2172606  -0.11542563  0.95607282
C -0.02347011 -0.3381598   0.20565804
C  1.18376562 -0.60809252  1.12329411
O  2.11426673 -1.40325863  0.4218324 
C  3.29938709 -0.75759579  0.19910783
H  0.07887239 -5.35724225  0.81963353
H -2.91561915e-03 -3.61744869e+00  5.74317243e-01
H -0.88562406 -4.36263812  2.04690592
H -1.79107479 -2.58096552 -0.07284775
H -3.17694534 -3.25289595  1.00435754
H -4.57357129 -3.64986777 -0.93742057
H -3.05460643 -3.90825129 -1.97153545
H -3.03148259 -2.17682283 -3.59545038
H -1.67016855 -1.92252672 -2.60198538
H -4.0228021   0.17426865 -2.67649556
H -2.48083906  0.30943978 -3.70714325
H -3.44019748  1.80670017 -0.7397302 
H -3.60787954e+00 -8.14630679e-04 -2.94843867e-01
H -2.49411807  1.41822083  1.48427587
H -1.20225186  1.80971636  0.3028012 
H -0.16581229 -1.27914824 -0.41680675
H  0.11503243  0.46572757 -0.58421301
H 1.65557449 0.30916648 1.45631465
H  0.81030142 -1.19963199  1.97177968
H  4.04132729 -1.50311398 -0.22433184
H  3.74884512 -0.3517719   1.0899526 
H  3.23516249  0.00442896 -0.65352064
