52

O -2.74645455  2.02196348 -1.20803481
S -1.52852147  1.68379179 -1.99403627
O -1.61640774  0.60888949 -3.03135197
N -0.16383835  1.32684869 -1.10816912
S 0.46091454 2.31515453 0.01617828
O 1.80495035 1.77523493 0.42647136
O  0.29128424  3.74923574 -0.26892678
C -0.54067404  2.25033782  1.71285625
F 0.3302839  2.05706255 2.6405052 
F -1.34287659  1.13931902  1.70019142
F -1.27695465  3.35176452  1.86804967
C -1.11598709  3.24176052 -3.14470714
F  0.02823523  3.18473293 -3.85126636
F -2.13270063  3.20506823 -4.10694605
F -1.2585955   4.38075435 -2.43866293
C  3.147191    2.00376296 -3.67130924
O  3.7173579   0.7204346  -3.83960146
C  3.12961611 -0.23543347 -2.87227397
C  1.69627078 -0.63089616 -3.3338255 
O  1.37978833 -2.00148925 -3.03153173
C  0.78806346 -2.10579068 -1.75148499
C -0.70257826 -2.14473508 -1.81114992
O -1.29709869 -2.62719598 -0.60001418
C -1.47277822 -1.67101208  0.46615287
C -0.23689424 -1.63964004  1.3851491 
O -0.76341656 -1.23090696  2.73629392
C -0.00582534 -1.63220977  3.83176976
C -0.57242213 -0.84750262  5.04671452
O -1.38249406 -1.69862534  5.89661736
C -2.74443428 -1.76030953  5.58511944
H  3.47596831  2.37750992 -2.67543953
H  2.02334805  2.058078   -3.64483765
H  3.61036727  2.64897309 -4.41121844
H  3.07087398  0.32165713 -1.87738193
H  3.78886539 -1.08368285 -2.99237989
H  0.89759164 -0.05073337 -2.88722965
H  1.65543064 -0.48422065 -4.42305095
H  1.07811644 -3.00896119 -1.18250991
H  1.12630077 -1.25713548 -1.09799604
H -0.8673012  -2.85100487 -2.60858957
H -1.10305866 -1.12671101 -2.05867354
H -1.79625974 -0.71033887  0.06688099
H -2.32452394 -2.06833775  1.09676154
H  0.10698477 -2.68777535  1.53584368
H  0.54222013 -0.92309279  1.08341793
H  0.02802953 -2.75140101  4.05255598
H  1.05742975 -1.22186641  3.78853011
H -1.13731194  0.04072158  4.64510318
H  0.250524   -0.60461143  5.76024161
H -3.15609635 -2.56252411  6.28049471
H -3.29112264 -0.79713468  5.78527042
H -2.90937963 -2.04777705  4.51543019
