52

O -1.8119915  -2.79472169  1.36867376
S -1.18430356 -1.99444689  0.32778939
O -2.10010886 -1.39505309 -0.72636581
N -0.27342177 -0.72200334  0.79209008
S  0.45097539 -0.64284412  2.20318199
O 1.43384184 0.49004334 2.08968345
O  0.91516166 -1.91270164  2.84295404
C -0.78206238  0.11761037  3.52587751
F -1.02103186  1.35096611  3.03055415
F -1.93072882 -0.60845926  3.66319639
F -0.1298175   0.17567381  4.71981233
C  0.06234242 -3.21366433 -0.45996916
F -0.52594376 -4.34225123 -0.87175672
F  0.99890247 -3.56675003  0.3978065 
F  0.66034759 -2.6154776  -1.4987568 
C -4.25334112 -0.05026603  1.35391804
O -4.0385827   1.29041306  1.76739058
C -3.86365549  2.17017062  0.70759172
C -2.63962595  1.87033788 -0.15850273
O -2.78813311  2.7382033  -1.31366152
C -1.51362026  2.65721967 -2.059149  
C -1.33270469  1.38648517 -2.88096183
O  0.05527293  1.24145682 -3.22117782
C  0.89104575  0.82518339 -2.07900323
C  2.36297378  0.61914432 -2.66424628
O  3.38041351  0.59070764 -1.62584885
C  3.19722113 -0.42458255 -0.62119591
C  4.61528662 -1.0035439  -0.34989089
O  4.6554449  -1.99683462  0.61115496
C  4.14397471 -1.49474321  1.88136956
H -3.92510714 -0.75724559  2.13124899
H -5.34125059 -0.29351488  1.17808639
H -3.78778993 -0.39457732  0.4154161 
H -4.68259618  2.13491575 -0.05873136
H -3.64743978  3.2574136   1.01210838
H -2.52432508  0.75990104 -0.41426094
H -1.75906006  2.26185456  0.3924548 
H -0.76477013  2.77046636 -1.28664267
H -1.62026272  3.57330086 -2.70734933
H -1.61791134  0.44889259 -2.34961346
H -1.88191056  1.44837338 -3.87154777
H  1.0747698   1.71449896 -1.33607603
H  0.35842769  0.047786   -1.55372577
H  2.38572026 -0.27263715 -3.34741559
H  2.53476154  1.49153911 -3.28121123
H  2.56015303 -1.27472457 -0.98964499
H  2.57755111 -0.01057245  0.22215831
H  5.2898753  -0.09025482 -0.15321881
H  4.98419463 -1.40243271 -1.29161573
H  3.11693658 -1.08628702  1.80851084
H  4.24532233 -2.39752085  2.4719855 
H  4.79057987 -0.67444681  2.25652645
