52

O  0.66316828 -0.65938281  1.213448  
S -0.7691094  -0.33775818  1.262235  
O -1.79576811 -1.38564658  1.05484428
N -0.95654635  1.03160949  0.40377436
S -2.30389405  1.30044537 -0.46039621
O -1.78632239  1.69521075 -1.79256243
O -3.48565484  0.40954392 -0.32070709
C -2.75163269  3.07624683  0.26970927
F -3.86256312  3.56287521 -0.400068  
F -1.74932096  3.95104496  0.11962718
F -3.0761642   3.02771112  1.5569378 
C -1.05811317  0.43912759  3.01128444
F -0.47821731 -0.32968596  4.00485063
F -0.4020996   1.62607912  3.03586112
F -2.329746    0.65616909  3.37589126
C 1.37703269 4.1251889  1.72207583
O 1.58762239 4.7223622  0.39302054
C  1.32406898  3.91880846 -0.72949643
C  2.22502094  2.63318467 -0.98918566
O  1.97410682  1.9753182  -2.14719068
C  1.71492108  0.5551835  -1.8934306 
C  1.07906904 -0.08066097 -3.11285242
O  0.98569497 -1.4840196  -2.90970436
C -0.34941697 -1.94475952 -2.58776427
C -0.49032964 -3.49489964 -2.54642838
O -0.83172346 -3.98355797 -1.21491119
C  0.05962013 -3.68625399 -0.14303423
C -0.59828205 -4.21883198  1.21114055
O  0.33092399 -4.50335548  2.24210972
C  0.74856062 -3.33228038  2.96479578
H 2.26220342 3.57954463 2.07993441
H 0.55991104 3.34451791 1.65694434
H 1.16032997 4.90915373 2.48386184
H  0.22258867  3.66520725 -0.6062095 
H  1.39499419  4.54641404 -1.66318056
H  3.29968053  2.99550576 -1.0408001 
H  2.20963724  1.91658844 -0.08021238
H  2.6420348   0.06181405 -1.65544504
H  1.03534375  0.4821178  -0.97906446
H  0.08413887  0.28039456 -3.26819255
H  1.60431278  0.10019237 -4.06641914
H -1.05890343 -1.55539159 -3.32980412
H -0.77720008 -1.42597691 -1.69272504
H  0.46611419 -3.93902112 -2.96941682
H -1.3726942  -3.85503075 -3.11197753
H  1.03820207 -4.14083398 -0.32336485
H  0.19984227 -2.59435772 -0.0232618 
H -1.14168143 -5.11587301  0.89337446
H -1.34867914 -3.47539868  1.54708359
H  1.72614916 -3.4960763   3.53083955
H -0.11337793 -3.1171209   3.67175246
H  0.91214766 -2.43138594  2.35240947
