52

O 2.76464837 0.43569306 0.3356911 
S 1.36589614 0.85436874 0.42518336
O  0.65158095  1.02533123 -0.88705955
N 0.30968456 0.19117943 1.47435546
S  0.93829366 -0.44034182  2.85195021
O -0.1169627  -0.76905926  3.85377893
O 2.19607723 0.26218667 3.29635938
C  1.49179265 -2.23720158  2.46129483
F  2.71858548 -2.20227722  1.84684453
F  1.6018709  -2.94536247  3.52307281
F  0.55315715 -2.79459156  1.55077775
C 1.57530529 2.68891512 1.16570798
F 0.38970261 3.39971785 1.02462983
F 2.50126219 3.32281143 0.34756903
F 1.97808205 2.80306966 2.38311342
C -2.04348266  1.85161217  4.32608778
O -2.51744791  2.84929612  3.43680169
C -3.41316885  2.25960915  2.43232054
C -2.62657719  1.56975497  1.25339889
O -3.20554092e+00  1.67529868e+00  1.47498000e-03
C -2.37413103  1.52572155 -1.14134317
C -3.05436542  0.7058954  -2.27225081
O -2.04630509  0.15072502 -3.03299709
C -1.26885642 -0.88326114 -2.44310765
C -0.4432716  -1.46644157 -3.56323705
O  1.94338618e-03 -2.74950365e+00 -3.16108042e+00
C  1.46766096 -2.87315307 -3.14034412
C  2.26797562 -2.00001977 -2.11285367
O  3.62542846 -2.25333203 -2.54411335
C  4.58463439 -1.68247706 -1.66065017
H -1.51296942  2.4128539   5.18656844
H -1.44004506  1.08229781  3.82918977
H -2.90435597  1.34597719  4.86212573
H -4.02352676  1.42040573  2.9164238 
H -4.09151004  3.12487896  2.0034437 
H -1.6829849   2.09110706  1.29071297
H -2.39715081  0.52744215  1.5547403 
H -1.95528464  2.44932139 -1.63307908
H -1.46655563  0.89729621 -0.78900795
H -3.67188143  1.46076476 -2.93283611
H -3.81814602 -0.04911691 -1.83495986
H -1.92169589 -1.60299775 -1.88217672
H -0.48037959 -0.5111622  -1.72605127
H -1.06454811 -1.6908296  -4.44764206
H  0.25504889 -0.70650374 -3.97982855
H  1.93830158 -2.58107336 -4.10980253
H  1.69004789 -3.93383182 -2.91297757
H  2.17392333 -2.33996234 -1.00443793
H  1.87706676 -0.95824218 -2.1284604 
H  4.63659342 -0.55023646 -1.70272673
H  4.41827074 -1.97718317 -0.64201546
H  5.5683094  -2.18536966 -1.94857793
