52

O -0.68869951 -3.61157235 -1.10377967
S -0.19071613 -2.6180735  -0.10662416
O  0.99083033 -2.93371412  0.72779875
N -0.17377979 -1.0696125  -0.54491291
S -1.06884482 -0.37034272 -1.7024497 
O -1.04612367  1.08143804 -1.48357348
O -2.34019895 -1.02137326 -2.09914292
C  0.01862108 -0.69913875 -3.25549049
F -0.5677704  -0.01551293 -4.2878377 
F  1.25619856 -0.1998927  -3.19453602
F  0.02849691 -2.03265159 -3.50669798
C -1.55546754 -2.47108163  1.21179814
F -2.76056872 -2.18292738  0.66862359
F -1.18620041 -1.47300658  2.09949039
F -1.72454507 -3.55663104  1.95149748
C  4.42012705 -3.27559879 -0.13822084
O  4.20867915 -2.04981745 -0.81091772
C  3.77337905 -1.07622744  0.1106931 
C  3.8360068   0.19801056 -0.71956824
O 3.66149997 1.37832443 0.08548309
C 2.30044376 1.55065024 0.48732589
C 2.05284544 1.01272732 1.88228495
O 0.97753589 1.61539649 2.56850538
C -0.15973563  1.69693764  1.71290809
C -1.39214729  1.78245376  2.55885578
O -2.53278687  2.32820228  1.87672782
C -3.15137967  1.41877175  0.9744386 
C -4.06177972  2.28971084  0.11734235
O -4.93629997  1.57876153 -0.76704269
C -4.58206683  1.62270844 -2.10500725
H  3.52837151 -3.61443336  0.46701867
H  4.60159993 -4.05527569 -0.89274545
H  5.32215874 -3.23453412  0.54463765
H  2.77293517 -1.24064183  0.47340694
H  4.54813032 -0.83210921  0.91261157
H  3.07591513  0.13801395 -1.52129377
H  4.85099348  0.27896848 -1.18197327
H  1.69862586  1.02336538 -0.287879  
H 2.07967884 2.63009592 0.53700022
H  1.88503884 -0.14734744  1.86659359
H 3.06126638 1.18134749 2.39991257
H -0.15306803  2.57234599  1.05961539
H -0.16503364  0.81579291  1.0666164 
H -1.62589409  0.81477733  3.04928156
H -1.16621268  2.46817201  3.41449443
H -3.67393847  0.62506643  1.60078885
H -2.47720804  0.84274937  0.3401158 
H -3.37107481  2.978074   -0.45187388
H -4.70577609  2.94026535  0.71382722
H -3.6134472   1.06676054 -2.2828861 
H -5.50635535  1.18055399 -2.58364971
H -4.37225878  2.67107392 -2.45159132
