52

O -0.58942481 -1.50700436 -3.38602219
S -1.34772009 -1.37971317 -2.10887953
O -2.437345   -2.34787008 -1.72378187
N -0.39675282 -1.11890627 -0.83657374
S  1.32347318 -0.83250853 -0.98374365
O  1.71204938 -0.53126412  0.4393355 
O  1.74842008 -0.01401285 -2.14993227
C  2.0646646  -2.58488983 -1.42440771
F  2.16890509 -3.40258836 -0.31805909
F  1.38435283 -3.28777679 -2.29781312
F  3.30993634 -2.36413964 -1.94218547
C -2.2095884   0.28807538 -2.40685281
F -1.41627147  1.04492281 -3.13025321
F -2.58179861  0.85267133 -1.24740705
F -3.34586464  0.18163136 -3.14565723
C -2.2764272  -5.19903837  0.26189856
O -1.39295788 -4.3260651   0.94635616
C -1.81894866 -3.02791929  1.37765015
C -0.75299225 -2.36096148  2.30487955
O -1.36341098 -1.16976519  2.92146482
C -1.41623596  0.00338264  2.11399757
C -1.54389703  1.01529482  3.27380033
O -1.71561636  2.29063675  2.70863875
C -0.47168967  2.6777802   2.00095199
C -0.61462382  2.58065225  0.48783611
O  0.34271036  3.48360149 -0.06234318
C  1.52782475  2.88154664 -0.59784222
C  2.46357359  4.05824187 -1.1916015 
O  3.86026411  3.88351984 -1.00323516
C  4.49214908  2.9361864  -1.8529546 
H -1.85045333 -6.21074068  0.43815661
H -2.23693063 -4.98969504 -0.83804063
H -3.40803159 -5.03874117  0.62245333
H -2.71818045 -3.07071419  2.04581179
H -2.03357214 -2.29820161  0.56010914
H  0.2392989  -2.06499863  1.75460838
H -0.42029361 -2.93189255  3.21022069
H -0.49843733  0.14935291  1.53812708
H -2.28337118  0.16035338  1.42980702
H -2.52389964  0.69240124  3.75531887
H -0.71880482  0.96529975  3.99837003
H 0.35999595 2.01624975 2.28868253
H -0.18150856  3.69833116  2.32994702
H -0.51464773  1.54992722  0.06401483
H -1.59676246  2.92459815  0.19619866
H 1.97703418 2.16586066 0.14878972
H  1.21545897  2.23221066 -1.43081705
H  2.3445399   4.23704999 -2.28720938
H  2.19212779  5.06242793 -0.73023058
H  3.79418494  2.68088938 -2.69435272
H  4.64370832  2.03226186 -1.31871067
H  5.51178678  3.31404946 -2.10851859
